# generated using pymatgen
data_ScO6
_symmetry_space_group_name_H-M   'P 1'
_cell_length_a   14.17420000
_cell_length_b   14.13270000
_cell_length_c   18.09870000
_cell_angle_alpha   90.01500000
_cell_angle_beta   89.89760000
_cell_angle_gamma   60.27280000
_symmetry_Int_Tables_number   1
_chemical_formula_structural   ScO6
_chemical_formula_sum   'Sc1 O6'
_cell_volume   3148.38564072
_cell_formula_units_Z   1
loop_
 _symmetry_equiv_pos_site_id
 _symmetry_equiv_pos_as_xyz
  1  'x, y, z'
loop_
 _atom_site_type_symbol
 _atom_site_label
 _atom_site_symmetry_multiplicity
 _atom_site_fract_x
 _atom_site_fract_y
 _atom_site_fract_z
 _atom_site_occupancy
  Sc  Sc1  1  0.760610  0.763690  0.251030  1
  O  O2  1  0.647870  0.856500  0.164790  1
  O  O3  1  0.852250  0.649630  0.336810  1
  O  O4  1  0.643190  0.861510  0.332860  1
  O  O5  1  0.858250  0.647440  0.167360  1
  O  O6  1  0.667950  0.670160  0.249920  1
  O  O7  1  0.843600  0.835650  0.249280  1
