# generated using pymatgen
data_ScO6
_symmetry_space_group_name_H-M   'P 1'
_cell_length_a   14.17420000
_cell_length_b   14.13270000
_cell_length_c   18.09870000
_cell_angle_alpha   90.01500000
_cell_angle_beta   89.89760000
_cell_angle_gamma   60.27280000
_symmetry_Int_Tables_number   1
_chemical_formula_structural   ScO6
_chemical_formula_sum   'Sc1 O6'
_cell_volume   3148.38564072
_cell_formula_units_Z   1
loop_
 _symmetry_equiv_pos_site_id
 _symmetry_equiv_pos_as_xyz
  1  'x, y, z'
loop_
 _atom_site_type_symbol
 _atom_site_label
 _atom_site_symmetry_multiplicity
 _atom_site_fract_x
 _atom_site_fract_y
 _atom_site_fract_z
 _atom_site_occupancy
  Sc  Sc1  1  0.240120  0.522590  0.750160  1
  O  O2  1  0.146730  0.501160  0.665010  1
  O  O3  1  0.354060  0.500740  0.835840  1
  O  O4  1  0.141170  0.506010  0.832840  1
  O  O5  1  0.357330  0.501560  0.666800  1
  O  O6  1  0.333270  0.336830  0.749890  1
  O  O7  1  0.170180  0.677000  0.747170  1
