# generated using pymatgen
data_ScO5
_symmetry_space_group_name_H-M   'P 1'
_cell_length_a   14.17420000
_cell_length_b   14.13270000
_cell_length_c   18.09870000
_cell_angle_alpha   90.01500000
_cell_angle_beta   89.89760000
_cell_angle_gamma   60.27280000
_symmetry_Int_Tables_number   1
_chemical_formula_structural   ScO5
_chemical_formula_sum   'Sc1 O5'
_cell_volume   3148.38564072
_cell_formula_units_Z   1
loop_
 _symmetry_equiv_pos_site_id
 _symmetry_equiv_pos_as_xyz
  1  'x, y, z'
loop_
 _atom_site_type_symbol
 _atom_site_label
 _atom_site_symmetry_multiplicity
 _atom_site_fract_x
 _atom_site_fract_y
 _atom_site_fract_z
 _atom_site_occupancy
  Sc  Sc1  1  0.745910  0.514210  0.250120  1
  O  O2  1  0.859520  0.487200  0.167640  1
  O  O3  1  0.649610  0.493390  0.331130  1
  O  O4  1  0.858400  0.487080  0.333260  1
  O  O5  1  0.650510  0.492790  0.168610  1
  O  O6  1  0.667950  0.670160  0.249920  1
