# generated using pymatgen
data_Sc
_symmetry_space_group_name_H-M   'P 1'
_cell_length_a   14.17420000
_cell_length_b   14.13270000
_cell_length_c   18.09870000
_cell_angle_alpha   90.01500000
_cell_angle_beta   89.89760000
_cell_angle_gamma   60.27280000
_symmetry_Int_Tables_number   1
_chemical_formula_structural   Sc
_chemical_formula_sum   Sc6
_cell_volume   3148.38564072
_cell_formula_units_Z   6
loop_
 _symmetry_equiv_pos_site_id
 _symmetry_equiv_pos_as_xyz
  1  'x, y, z'
loop_
 _atom_site_type_symbol
 _atom_site_label
 _atom_site_symmetry_multiplicity
 _atom_site_fract_x
 _atom_site_fract_y
 _atom_site_fract_z
 _atom_site_occupancy
  Sc  Sc1  1  0.488560  0.258750  0.750140  1
  Sc  Sc2  1  0.240120  0.522590  0.750160  1
  Sc  Sc3  1  0.254530  0.259340  0.750440  1
  Sc  Sc4  1  0.512760  0.747050  0.249980  1
  Sc  Sc5  1  0.745910  0.514210  0.250120  1
  Sc  Sc6  1  0.760610  0.763690  0.251030  1
