# generated using pymatgen
data_H13(C12O7)2
_symmetry_space_group_name_H-M   'P 1'
_cell_length_a   14.17420000
_cell_length_b   14.13270000
_cell_length_c   18.09870000
_cell_angle_alpha   90.01500000
_cell_angle_beta   89.89760000
_cell_angle_gamma   60.27280000
_symmetry_Int_Tables_number   1
_chemical_formula_structural   H13(C12O7)2
_chemical_formula_sum   'H26 C48 O28'
_cell_volume   3148.38564072
_cell_formula_units_Z   2
loop_
 _symmetry_equiv_pos_site_id
 _symmetry_equiv_pos_as_xyz
  1  'x, y, z'
loop_
 _atom_site_type_symbol
 _atom_site_label
 _atom_site_symmetry_multiplicity
 _atom_site_fract_x
 _atom_site_fract_y
 _atom_site_fract_z
 _atom_site_occupancy
  H  H1  1  0.632160  0.320630  0.557550  1
  H  H2  1  0.051370  0.621290  0.561370  1
  H  H3  1  0.322590  0.049280  0.564190  1
  H  H4  1  0.374500  0.674150  0.060830  1
  H  H5  1  0.950870  0.370180  0.061480  1
  H  H6  1  0.674140  0.949280  0.060170  1
  H  H7  1  0.678340  0.374420  0.436290  1
  H  H8  1  0.369620  0.950140  0.442660  1
  H  H9  1  0.947450  0.674020  0.441570  1
  H  H10  1  0.326960  0.620360  0.939990  1
  H  H11  1  0.625720  0.050120  0.939240  1
  H  H12  1  0.051300  0.319750  0.940390  1
  H  H13  1  0.372170  0.672530  0.439010  1
  H  H14  1  0.949570  0.369140  0.439360  1
  H  H15  1  0.671940  0.951310  0.438550  1
  H  H16  1  0.629470  0.318790  0.943330  1
  H  H17  1  0.046610  0.625920  0.937820  1
  H  H18  1  0.323320  0.048810  0.937340  1
  H  H19  1  0.326100  0.618410  0.560360  1
  H  H20  1  0.625320  0.049920  0.560480  1
  H  H21  1  0.053140  0.316630  0.558910  1
  H  H22  1  0.677010  0.372160  0.064120  1
  H  H23  1  0.371980  0.947900  0.058080  1
  H  H24  1  0.946170  0.676210  0.059240  1
  H  H25  1  0.172250  0.736870  0.723030  1
  H  H26  1  0.907540  0.831330  0.226910  1
  C  C27  1  0.575860  0.397320  0.531030  1
  C  C28  1  0.028440  0.567020  0.534000  1
  C  C29  1  0.399060  0.026880  0.536400  1
  C  C30  1  0.429460  0.596350  0.034790  1
  C  C31  1  0.972410  0.425360  0.033920  1
  C  C32  1  0.597810  0.971400  0.032480  1
  C  C33  1  0.601300  0.426950  0.463830  1
  C  C34  1  0.424930  0.972370  0.469000  1
  C  C35  1  0.971190  0.596070  0.467870  1
  C  C36  1  0.403160  0.566870  0.967930  1
  C  C37  1  0.571010  0.026980  0.965610  1
  C  C38  1  0.027690  0.397610  0.966860  1
  C  C39  1  0.428260  0.595510  0.465300  1
  C  C40  1  0.972390  0.423590  0.466570  1
  C  C41  1  0.595980  0.972970  0.466840  1
  C  C42  1  0.574260  0.396240  0.969640  1
  C  C43  1  0.025070  0.570800  0.965500  1
  C  C44  1  0.400040  0.026190  0.964610  1
  C  C45  1  0.402830  0.565850  0.532470  1
  C  C46  1  0.570170  0.027300  0.534290  1
  C  C47  1  0.029500  0.394650  0.532760  1
  C  C48  1  0.600480  0.425660  0.036580  1
  C  C49  1  0.426880  0.970610  0.031500  1
  C  C50  1  0.969860  0.598420  0.032610  1
  C  C51  1  0.447990  0.435840  0.637920  1
  C  C52  1  0.476600  0.466760  0.565810  1
  C  C53  1  0.119660  0.435620  0.637680  1
  C  C54  1  0.057720  0.466250  0.566860  1
  C  C55  1  0.442360  0.115530  0.640800  1
  C  C56  1  0.471630  0.054480  0.569520  1
  C  C57  1  0.558370  0.558470  0.140120  1
  C  C58  1  0.528300  0.525880  0.069550  1
  C  C59  1  0.883290  0.556060  0.138960  1
  C  C60  1  0.943400  0.525770  0.067230  1
  C  C61  1  0.555970  0.882790  0.137530  1
  C  C62  1  0.525840  0.943050  0.065840  1
  C  C63  1  0.557340  0.558980  0.359810  1
  C  C64  1  0.527750  0.526220  0.430590  1
  C  C65  1  0.552630  0.885450  0.361870  1
  C  C66  1  0.523480  0.945210  0.433840  1
  C  C67  1  0.880510  0.556390  0.363170  1
  C  C68  1  0.942900  0.524410  0.433810  1
  C  C69  1  0.446050  0.436040  0.863140  1
  C  C70  1  0.475550  0.466770  0.934910  1
  C  C71  1  0.441260  0.117270  0.860740  1
  C  C72  1  0.471870  0.054760  0.931300  1
  C  C73  1  0.115650  0.439720  0.861060  1
  C  C74  1  0.054350  0.470120  0.932320  1
  O  O75  1  0.517020  0.343720  0.666290  1
  O  O76  1  0.146730  0.501160  0.665010  1
  O  O77  1  0.350460  0.141060  0.669880  1
  O  O78  1  0.491700  0.651230  0.168020  1
  O  O79  1  0.859520  0.487200  0.167640  1
  O  O80  1  0.647870  0.856500  0.164790  1
  O  O81  1  0.649610  0.493390  0.331130  1
  O  O82  1  0.484390  0.860730  0.333780  1
  O  O83  1  0.852250  0.649630  0.336810  1
  O  O84  1  0.354060  0.500740  0.835840  1
  O  O85  1  0.508070  0.143060  0.832370  1
  O  O86  1  0.140250  0.346890  0.832620  1
  O  O87  1  0.490500  0.651510  0.331990  1
  O  O88  1  0.858400  0.487080  0.333260  1
  O  O89  1  0.643190  0.861510  0.332860  1
  O  O90  1  0.515840  0.345120  0.833400  1
  O  O91  1  0.141170  0.506010  0.832840  1
  O  O92  1  0.348630  0.143850  0.832750  1
  O  O93  1  0.357330  0.501560  0.666800  1
  O  O94  1  0.509380  0.141300  0.668650  1
  O  O95  1  0.142650  0.343570  0.666750  1
  O  O96  1  0.650510  0.492790  0.168610  1
  O  O97  1  0.486660  0.860500  0.167160  1
  O  O98  1  0.858250  0.647440  0.167360  1
  O  O99  1  0.333270  0.336830  0.749890  1
  O  O100  1  0.667950  0.670160  0.249920  1
  O  O101  1  0.170180  0.677000  0.747170  1
  O  O102  1  0.843600  0.835650  0.249280  1
