data_image0
_cell_length_a       18.7412
_cell_length_b       19.079
_cell_length_c       18.7286
_cell_angle_alpha    89.9769
_cell_angle_beta     89.9712
_cell_angle_gamma    89.9927

_symmetry_space_group_name_H-M    "P 1"
_symmetry_int_tables_number       1

loop_
  _symmetry_equiv_pos_as_xyz
  'x, y, z'

loop_
  _atom_site_label
  _atom_site_occupancy
  _atom_site_fract_x
  _atom_site_fract_y
  _atom_site_fract_z
  _atom_site_thermal_displace_type
  _atom_site_B_iso_or_equiv
  _atom_site_type_symbol
  Na1      1.0000 0.98665  0.97862  0.36568  Biso   1.000  Na
  Na2      1.0000 0.36908  0.00807  0.99543  Biso   1.000  Na
  Na3      1.0000 0.98580  0.36664  0.98654  Biso   1.000  Na
  Mg1      1.0000 0.86158  0.99758  0.50384  Biso   1.000  Mg
  Mg2      1.0000 0.13890  0.99783  0.50374  Biso   1.000  Mg
  Mg3      1.0000 0.50172  0.13876  0.00222  Biso   1.000  Mg
  Mg4      1.0000 0.00044  0.50394  0.86312  Biso   1.000  Mg
  Mg5      1.0000 0.00066  0.50360  0.14102  Biso   1.000  Mg
  Mg6      1.0000 0.00039  0.86171  0.50458  Biso   1.000  Mg
  Mg7      1.0000 0.00063  0.13279  0.50328  Biso   1.000  Mg
  Mg8      1.0000 0.86282  0.50064  0.00211  Biso   1.000  Mg
  Mg9      1.0000 0.13812  0.50047  0.00241  Biso   1.000  Mg
  Mg10     1.0000 0.50136  0.00210  0.13404  Biso   1.000  Mg
  Mg11     1.0000 0.50146  0.00194  0.86956  Biso   1.000  Mg
  Co1      1.0000 0.50058  0.86606  0.00183  Biso   1.000  Co
  H1       1.0000 0.88892  0.73199  0.26851  Biso   1.000  H
  H2       1.0000 0.10768  0.27024  0.72947  Biso   1.000  H
  H3       1.0000 0.10356  0.26618  0.27097  Biso   1.000  H
  H4       1.0000 0.88606  0.72935  0.73199  Biso   1.000  H
  H5       1.0000 0.11487  0.72946  0.73211  Biso   1.000  H
  H6       1.0000 0.89808  0.26526  0.27010  Biso   1.000  H
  H7       1.0000 0.89289  0.26972  0.72910  Biso   1.000  H
  H8       1.0000 0.11089  0.73333  0.26835  Biso   1.000  H
  H9       1.0000 0.27504  0.89167  0.73838  Biso   1.000  H
  H10      1.0000 0.73185  0.10882  0.27065  Biso   1.000  H
  H11      1.0000 0.26699  0.10708  0.26881  Biso   1.000  H
  H12      1.0000 0.72460  0.89052  0.73703  Biso   1.000  H
  H13      1.0000 0.72740  0.11281  0.72913  Biso   1.000  H
  H14      1.0000 0.27039  0.89640  0.26103  Biso   1.000  H
  H15      1.0000 0.72752  0.89346  0.26348  Biso   1.000  H
  H16      1.0000 0.27122  0.11141  0.73124  Biso   1.000  H
  H17      1.0000 0.73021  0.27173  0.89259  Biso   1.000  H
  H18      1.0000 0.27309  0.72972  0.10506  Biso   1.000  H
  H19      1.0000 0.26621  0.26856  0.10767  Biso   1.000  H
  H20      1.0000 0.72652  0.72865  0.89811  Biso   1.000  H
  H21      1.0000 0.72685  0.72923  0.10511  Biso   1.000  H
  H22      1.0000 0.26749  0.26979  0.89552  Biso   1.000  H
  H23      1.0000 0.27447  0.72804  0.89795  Biso   1.000  H
  H24      1.0000 0.73255  0.27042  0.10983  Biso   1.000  H
  C1       1.0000 0.84160  0.75505  0.24425  Biso   1.000  C
  C2       1.0000 0.15528  0.24759  0.75363  Biso   1.000  C
  C3       1.0000 0.15128  0.24360  0.24698  Biso   1.000  C
  C4       1.0000 0.83891  0.75246  0.75655  Biso   1.000  C
  C5       1.0000 0.16198  0.75257  0.75672  Biso   1.000  C
  C6       1.0000 0.84949  0.24360  0.24706  Biso   1.000  C
  C7       1.0000 0.84473  0.24763  0.75265  Biso   1.000  C
  C8       1.0000 0.15806  0.75648  0.24383  Biso   1.000  C
  C9       1.0000 0.25186  0.84394  0.76039  Biso   1.000  C
  C10      1.0000 0.75591  0.15553  0.24746  Biso   1.000  C
  C11      1.0000 0.24333  0.15411  0.24592  Biso   1.000  C
  C12      1.0000 0.74814  0.84308  0.75930  Biso   1.000  C
  C13      1.0000 0.75157  0.15931  0.75256  Biso   1.000  C
  C14      1.0000 0.24772  0.84818  0.23967  Biso   1.000  C
  C15      1.0000 0.75078  0.84576  0.24153  Biso   1.000  C
  C16      1.0000 0.24738  0.15819  0.75451  Biso   1.000  C
  C17      1.0000 0.75318  0.24872  0.84458  Biso   1.000  C
  C18      1.0000 0.24944  0.75435  0.15192  Biso   1.000  C
  C19      1.0000 0.24283  0.24491  0.15517  Biso   1.000  C
  C20      1.0000 0.74908  0.75202  0.85005  Biso   1.000  C
  C21      1.0000 0.75036  0.75339  0.15228  Biso   1.000  C
  C22      1.0000 0.24519  0.24728  0.84698  Biso   1.000  C
  C23      1.0000 0.25173  0.75181  0.85018  Biso   1.000  C
  C24      1.0000 0.75632  0.24653  0.15699  Biso   1.000  C
  C25      1.0000 0.84494  0.84838  0.33578  Biso   1.000  C
  C26      1.0000 0.15544  0.15462  0.66088  Biso   1.000  C
  C27      1.0000 0.15028  0.14915  0.33837  Biso   1.000  C
  C28      1.0000 0.84152  0.84495  0.66404  Biso   1.000  C
  C29      1.0000 0.15928  0.84502  0.66418  Biso   1.000  C
  C30      1.0000 0.85113  0.14874  0.33782  Biso   1.000  C
  C31      1.0000 0.84457  0.15475  0.65984  Biso   1.000  C
  C32      1.0000 0.15368  0.85077  0.33437  Biso   1.000  C
  C33      1.0000 0.34213  0.84678  0.85779  Biso   1.000  C
  C34      1.0000 0.66121  0.15601  0.15631  Biso   1.000  C
  C35      1.0000 0.33569  0.15207  0.15266  Biso   1.000  C
  C36      1.0000 0.65598  0.84474  0.85478  Biso   1.000  C
  C37      1.0000 0.65893  0.15751  0.84587  Biso   1.000  C
  C38      1.0000 0.34003  0.84913  0.14408  Biso   1.000  C
  C39      1.0000 0.65698  0.84589  0.14778  Biso   1.000  C
  C40      1.0000 0.33730  0.15403  0.85016  Biso   1.000  C
  C41      1.0000 0.84812  0.33873  0.84714  Biso   1.000  C
  C42      1.0000 0.15682  0.66139  0.15404  Biso   1.000  C
  C43      1.0000 0.14925  0.33649  0.15403  Biso   1.000  C
  C44      1.0000 0.84275  0.65990  0.84903  Biso   1.000  C
  C45      1.0000 0.84330  0.66047  0.15398  Biso   1.000  C
  C46      1.0000 0.15079  0.33780  0.84922  Biso   1.000  C
  C47      1.0000 0.15881  0.65903  0.84826  Biso   1.000  C
  C48      1.0000 0.85204  0.33603  0.15376  Biso   1.000  C
  C49      1.0000 0.81154  0.81606  0.27310  Biso   1.000  C
  C50      1.0000 0.18682  0.18803  0.72335  Biso   1.000  C
  C51      1.0000 0.18219  0.18334  0.27652  Biso   1.000  C
  C52      1.0000 0.80849  0.81306  0.72717  Biso   1.000  C
  C53      1.0000 0.19202  0.81353  0.72771  Biso   1.000  C
  C54      1.0000 0.81812  0.18370  0.27694  Biso   1.000  C
  C55      1.0000 0.81300  0.18827  0.72221  Biso   1.000  C
  C56      1.0000 0.18743  0.81814  0.27194  Biso   1.000  C
  C57      1.0000 0.28152  0.81318  0.82186  Biso   1.000  C
  C58      1.0000 0.72505  0.18698  0.18754  Biso   1.000  C
  C59      1.0000 0.27343  0.18481  0.18522  Biso   1.000  C
  C60      1.0000 0.71836  0.81248  0.82076  Biso   1.000  C
  C61      1.0000 0.72177  0.18950  0.81367  Biso   1.000  C
  C62      1.0000 0.27860  0.81631  0.17942  Biso   1.000  C
  C63      1.0000 0.72010  0.81433  0.18103  Biso   1.000  C
  C64      1.0000 0.27625  0.18772  0.81636  Biso   1.000  C
  C65      1.0000 0.81467  0.27774  0.81390  Biso   1.000  C
  C66      1.0000 0.18894  0.72468  0.18395  Biso   1.000  C
  C67      1.0000 0.18167  0.27433  0.18617  Biso   1.000  C
  C68      1.0000 0.80941  0.72210  0.81791  Biso   1.000  C
  C69      1.0000 0.81107  0.72377  0.18393  Biso   1.000  C
  C70      1.0000 0.18449  0.27710  0.81557  Biso   1.000  C
  C71      1.0000 0.19172  0.72170  0.81767  Biso   1.000  C
  C72      1.0000 0.81857  0.27479  0.18677  Biso   1.000  C
  N1       1.0000 0.86630  0.91778  0.42208  Biso   1.000  N
  N2       1.0000 0.13620  0.08190  0.57773  Biso   1.000  N
  N3       1.0000 0.13101  0.07625  0.42163  Biso   1.000  N
  N4       1.0000 0.86373  0.91469  0.57856  Biso   1.000  N
  N5       1.0000 0.13754  0.91425  0.57818  Biso   1.000  N
  N6       1.0000 0.87406  0.07352  0.41824  Biso   1.000  N
  N7       1.0000 0.86314  0.08309  0.57551  Biso   1.000  N
  N8       1.0000 0.13334  0.91944  0.42138  Biso   1.000  N
  N9       1.0000 0.42778  0.86726  0.92880  Biso   1.000  N
  N10      1.0000 0.57421  0.13730  0.08723  Biso   1.000  N
  N11      1.0000 0.41933  0.12914  0.08029  Biso   1.000  N
  N12      1.0000 0.57139  0.86639  0.92643  Biso   1.000  N
  N13      1.0000 0.57371  0.13723  0.91687  Biso   1.000  N
  N14      1.0000 0.42712  0.86821  0.07443  Biso   1.000  N
  N15      1.0000 0.57132  0.86661  0.07727  Biso   1.000  N
  N16      1.0000 0.41973  0.13075  0.92376  Biso   1.000  N
  N17      1.0000 0.91987  0.42252  0.86824  Biso   1.000  N
  N18      1.0000 0.08573  0.57673  0.13702  Biso   1.000  N
  N19      1.0000 0.08021  0.42265  0.13526  Biso   1.000  N
  N20      1.0000 0.91506  0.57625  0.86711  Biso   1.000  N
  N21      1.0000 0.91456  0.57569  0.13741  Biso   1.000  N
  N22      1.0000 0.07778  0.41977  0.87290  Biso   1.000  N
  N23      1.0000 0.08734  0.57462  0.86566  Biso   1.000  N
  N24      1.0000 0.92163  0.42201  0.13558  Biso   1.000  N
  N25      1.0000 0.91380  0.86373  0.57868  Biso   1.000  N
  N26      1.0000 0.07969  0.12564  0.42316  Biso   1.000  N
  N27      1.0000 0.08436  0.13085  0.57682  Biso   1.000  N
  N28      1.0000 0.91825  0.86830  0.42041  Biso   1.000  N
  N29      1.0000 0.92247  0.12571  0.42221  Biso   1.000  N
  N30      1.0000 0.08797  0.86281  0.57786  Biso   1.000  N
  N31      1.0000 0.07960  0.87216  0.41793  Biso   1.000  N
  N32      1.0000 0.91575  0.13128  0.57559  Biso   1.000  N
  N33      1.0000 0.87622  0.41714  0.07978  Biso   1.000  N
  N34      1.0000 0.13755  0.57350  0.91731  Biso   1.000  N
  N35      1.0000 0.13022  0.42029  0.92241  Biso   1.000  N
  N36      1.0000 0.86257  0.57257  0.08763  Biso   1.000  N
  N37      1.0000 0.13692  0.57470  0.08637  Biso   1.000  N
  N38      1.0000 0.86998  0.42090  0.92057  Biso   1.000  N
  N39      1.0000 0.86422  0.57446  0.91814  Biso   1.000  N
  N40      1.0000 0.12940  0.42065  0.08271  Biso   1.000  N
  N41      1.0000 0.41855  0.92519  0.11665  Biso   1.000  N
  N42      1.0000 0.57424  0.08685  0.86631  Biso   1.000  N
  N43      1.0000 0.41838  0.07989  0.87353  Biso   1.000  N
  N44      1.0000 0.57133  0.91627  0.12888  Biso   1.000  N
  N45      1.0000 0.57160  0.91633  0.87507  Biso   1.000  N
  N46      1.0000 0.41988  0.08053  0.13270  Biso   1.000  N
  N47      1.0000 0.57572  0.08607  0.13690  Biso   1.000  N
  N48      1.0000 0.41881  0.92426  0.88661  Biso   1.000  N
  N49      1.0000 0.82028  0.90634  0.36962  Biso   1.000  N
  N50      1.0000 0.18135  0.09573  0.63009  Biso   1.000  N
  N51      1.0000 0.17581  0.08976  0.36861  Biso   1.000  N
  N52      1.0000 0.81810  0.90393  0.63142  Biso   1.000  N
  N53      1.0000 0.18254  0.90410  0.63164  Biso   1.000  N
  N54      1.0000 0.82882  0.08689  0.36527  Biso   1.000  N
  N55      1.0000 0.81794  0.09673  0.62796  Biso   1.000  N
  N56      1.0000 0.17990  0.90715  0.36976  Biso   1.000  N
  N57      1.0000 0.38074  0.81843  0.91227  Biso   1.000  N
  N58      1.0000 0.62721  0.18162  0.09837  Biso   1.000  N
  N59      1.0000 0.36684  0.17440  0.09172  Biso   1.000  N
  N60      1.0000 0.62335  0.82111  0.91490  Biso   1.000  N
  N61      1.0000 0.62621  0.18197  0.90509  Biso   1.000  N
  N62      1.0000 0.37881  0.82020  0.09015  Biso   1.000  N
  N63      1.0000 0.62412  0.82207  0.08798  Biso   1.000  N
  N64      1.0000 0.36937  0.17756  0.91018  Biso   1.000  N
  N65      1.0000 0.90728  0.37137  0.82203  Biso   1.000  N
  N66      1.0000 0.09716  0.63059  0.17994  Biso   1.000  N
  N67      1.0000 0.09146  0.37029  0.18039  Biso   1.000  N
  N68      1.0000 0.90267  0.62928  0.82333  Biso   1.000  N
  N69      1.0000 0.90352  0.63028  0.17945  Biso   1.000  N
  N70      1.0000 0.08961  0.36819  0.82666  Biso   1.000  N
  N71      1.0000 0.09961  0.62774  0.82193  Biso   1.000  N
  N72      1.0000 0.90768  0.37184  0.18222  Biso   1.000  N
  N73      1.0000 0.90089  0.81962  0.63169  Biso   1.000  N
  N74      1.0000 0.09053  0.17175  0.37147  Biso   1.000  N
  N75      1.0000 0.09532  0.17690  0.62833  Biso   1.000  N
  N76      1.0000 0.90588  0.82465  0.36654  Biso   1.000  N
  N77      1.0000 0.90933  0.17314  0.37255  Biso   1.000  N
  N78      1.0000 0.10061  0.81900  0.63122  Biso   1.000  N
  N79      1.0000 0.09136  0.82883  0.36348  Biso   1.000  N
  N80      1.0000 0.90520  0.17661  0.62783  Biso   1.000  N
  N81      1.0000 0.83228  0.36328  0.09012  Biso   1.000  N
  N82      1.0000 0.18273  0.62584  0.90742  Biso   1.000  N
  N83      1.0000 0.17623  0.36948  0.90874  Biso   1.000  N
  N84      1.0000 0.81751  0.62515  0.09700  Biso   1.000  N
  N85      1.0000 0.18193  0.62720  0.09601  Biso   1.000  N
  N86      1.0000 0.82483  0.36872  0.90842  Biso   1.000  N
  N87      1.0000 0.81851  0.62629  0.90784  Biso   1.000  N
  N88      1.0000 0.17303  0.36697  0.09326  Biso   1.000  N
  N89      1.0000 0.36393  0.91391  0.16049  Biso   1.000  N
  N90      1.0000 0.62722  0.09856  0.82128  Biso   1.000  N
  N91      1.0000 0.36692  0.09339  0.82703  Biso   1.000  N
  N92      1.0000 0.62468  0.90407  0.17328  Biso   1.000  N
  N93      1.0000 0.62429  0.90356  0.83000  Biso   1.000  N
  N94      1.0000 0.36786  0.09373  0.17848  Biso   1.000  N
  N95      1.0000 0.62983  0.09680  0.18074  Biso   1.000  N
  N96      1.0000 0.36503  0.91207  0.84190  Biso   1.000  N
  Cl1      1.0000 0.00030  0.99592  0.50824  Biso   1.000  Cl
  Cl2      1.0000 0.51186  0.00408  0.00184  Biso   1.000  Cl
  Cl3      1.0000 0.00051  0.50651  0.00192  Biso   1.000  Cl
