data_image0
_cell_length_a       15.4967
_cell_length_b       14.2613
_cell_length_c       14.2542
_cell_angle_alpha    116.744
_cell_angle_beta     100.443
_cell_angle_gamma    100.442

_symmetry_space_group_name_H-M    "P 1"
_symmetry_int_tables_number       1

loop_
  _symmetry_equiv_pos_as_xyz
  'x, y, z'

loop_
  _atom_site_label
  _atom_site_occupancy
  _atom_site_fract_x
  _atom_site_fract_y
  _atom_site_fract_z
  _atom_site_thermal_displace_type
  _atom_site_B_iso_or_equiv
  _atom_site_type_symbol
  N1       1.0000 0.12097  0.20533  0.13881  Biso   1.000  N
  N2       1.0000 0.37899  0.79474  0.86129  Biso   1.000  N
  N3       1.0000 0.30167  0.36132  0.06673  Biso   1.000  N
  N4       1.0000 0.19822  0.63860  0.93312  Biso   1.000  N
  N5       1.0000 0.01831  0.43307  0.29451  Biso   1.000  N
  N6       1.0000 0.48178  0.56678  0.70539  Biso   1.000  N
  N7       1.0000 0.37895  0.36125  0.29458  Biso   1.000  N
  N8       1.0000 0.12099  0.63897  0.70532  Biso   1.000  N
  N9       1.0000 0.19854  0.43339  0.13889  Biso   1.000  N
  N10      1.0000 0.30157  0.56676  0.86121  Biso   1.000  N
  N11      1.0000 0.48169  0.20531  0.06672  Biso   1.000  N
  N12      1.0000 0.01834  0.79471  0.93325  Biso   1.000  N
  N13      1.0000 0.06643  0.26566  0.13291  Biso   1.000  N
  N14      1.0000 0.43357  0.73439  0.86702  Biso   1.000  N
  N15      1.0000 0.25012  0.36717  0.13301  Biso   1.000  N
  N16      1.0000 0.24989  0.63287  0.86698  Biso   1.000  N
  N17      1.0000 0.43349  0.36698  0.23417  Biso   1.000  N
  N18      1.0000 0.06641  0.63321  0.76569  Biso   1.000  N
  N19      1.0000 0.62092  0.20527  0.13877  Biso   1.000  N
  N20      1.0000 0.87909  0.79475  0.86115  Biso   1.000  N
  N21      1.0000 0.80152  0.36106  0.06654  Biso   1.000  N
  N22      1.0000 0.69835  0.63873  0.93325  Biso   1.000  N
  N23      1.0000 0.51818  0.43323  0.29449  Biso   1.000  N
  N24      1.0000 0.98175  0.56689  0.70537  Biso   1.000  N
  N25      1.0000 0.87907  0.36123  0.29466  Biso   1.000  N
  N26      1.0000 0.62104  0.63882  0.70529  Biso   1.000  N
  N27      1.0000 0.69833  0.43307  0.13863  Biso   1.000  N
  N28      1.0000 0.80165  0.56684  0.86129  Biso   1.000  N
  N29      1.0000 0.98170  0.20533  0.06682  Biso   1.000  N
  N30      1.0000 0.51829  0.79469  0.93321  Biso   1.000  N
  N31      1.0000 0.56639  0.26563  0.13292  Biso   1.000  N
  N32      1.0000 0.93364  0.73440  0.86696  Biso   1.000  N
  N33      1.0000 0.74988  0.36681  0.13272  Biso   1.000  N
  N34      1.0000 0.75000  0.63297  0.86708  Biso   1.000  N
  N35      1.0000 0.93356  0.36701  0.23422  Biso   1.000  N
  N36      1.0000 0.56650  0.63299  0.76568  Biso   1.000  N
  C1       1.0000 0.06923  0.09647  0.07198  Biso   1.000  C
  C2       1.0000 0.43066  0.90357  0.92830  Biso   1.000  C
  C3       1.0000 0.28342  0.42829  0.02477  Biso   1.000  C
  C4       1.0000 0.21650  0.57166  0.97512  Biso   1.000  C
  C5       1.0000 0.02110  0.47501  0.40345  Biso   1.000  C
  C6       1.0000 0.47900  0.52483  0.59647  Biso   1.000  C
  C7       1.0000 0.06936  0.57177  0.59641  Biso   1.000  C
  C8       1.0000 0.43066  0.42836  0.40349  Biso   1.000  C
  C9       1.0000 0.21671  0.47532  0.07184  Biso   1.000  C
  C10      1.0000 0.28329  0.52472  0.92812  Biso   1.000  C
  C11      1.0000 0.47895  0.09645  0.02478  Biso   1.000  C
  C12      1.0000 0.02106  0.90359  0.97532  Biso   1.000  C
  C13      1.0000 0.09232  0.00001  0.04922  Biso   1.000  C
  C14      1.0000 0.40759  0.00005  0.95110  Biso   1.000  C
  C15      1.0000 0.18213  0.54892  0.04895  Biso   1.000  C
  C16      1.0000 0.31781  0.45104  0.95094  Biso   1.000  C
  C17      1.0000 0.09244  0.54876  0.49986  Biso   1.000  C
  C18      1.0000 0.40764  0.45119  0.50004  Biso   1.000  C
  C19      1.0000 0.56922  0.09642  0.07180  Biso   1.000  C
  C20      1.0000 0.93078  0.90360  0.92828  Biso   1.000  C
  C21      1.0000 0.78337  0.42817  0.02471  Biso   1.000  C
  C22      1.0000 0.71660  0.57177  0.97526  Biso   1.000  C
  C23      1.0000 0.52091  0.47531  0.40341  Biso   1.000  C
  C24      1.0000 0.97910  0.52474  0.59649  Biso   1.000  C
  C25      1.0000 0.56927  0.57184  0.59640  Biso   1.000  C
  C26      1.0000 0.93084  0.42808  0.40353  Biso   1.000  C
  C27      1.0000 0.71663  0.47515  0.07176  Biso   1.000  C
  C28      1.0000 0.78343  0.52487  0.92830  Biso   1.000  C
  C29      1.0000 0.97897  0.09651  0.02497  Biso   1.000  C
  C30      1.0000 0.52095  0.90354  0.97528  Biso   1.000  C
  C31      1.0000 0.59227  0.99995  0.04907  Biso   1.000  C
  C32      1.0000 0.90766  0.00007  0.95118  Biso   1.000  C
  C33      1.0000 0.68218  0.54893  0.04902  Biso   1.000  C
  C34      1.0000 0.81792  0.45116  0.95110  Biso   1.000  C
  C35      1.0000 0.59230  0.54900  0.49984  Biso   1.000  C
  C36      1.0000 0.90778  0.45090  0.50006  Biso   1.000  C
  Co1      1.0000 0.24995  0.28605  0.21380  Biso   1.000  Co
  Co2      1.0000 0.25002  0.71400  0.78621  Biso   1.000  Co
  Co3      1.0000 0.39307  0.28609  0.07233  Biso   1.000  Co
  Co4      1.0000 0.10685  0.71381  0.92752  Biso   1.000  Co
  Co5      1.0000 0.10694  0.42740  0.21382  Biso   1.000  Co
  Co6      1.0000 0.39314  0.57267  0.78628  Biso   1.000  Co
  Co7      1.0000 0.74998  0.28609  0.21391  Biso   1.000  Co
  Co8      1.0000 0.75006  0.71390  0.78603  Biso   1.000  Co
  Co9      1.0000 0.89309  0.28608  0.07246  Biso   1.000  Co
  Co10     1.0000 0.60693  0.71397  0.92755  Biso   1.000  Co
  Co11     1.0000 0.60682  0.42735  0.21361  Biso   1.000  Co
  Co12     1.0000 0.89311  0.57262  0.78613  Biso   1.000  Co
  Cl1      1.0000 0.21030  0.42041  0.34204  Biso   1.000  Cl
  Cl2      1.0000 0.28955  0.57935  0.65795  Biso   1.000  Cl
  Cl3      1.0000 0.28933  0.15794  0.07882  Biso   1.000  Cl
  Cl4      1.0000 0.21069  0.84214  0.92138  Biso   1.000  Cl
  Cl5      1.0000 0.00003  0.42071  0.07885  Biso   1.000  Cl
  Cl6      1.0000 0.00001  0.57905  0.92100  Biso   1.000  Cl
  Cl7      1.0000 0.71046  0.42080  0.34196  Biso   1.000  Cl
  Cl8      1.0000 0.78958  0.57916  0.65769  Biso   1.000  Cl
  Cl9      1.0000 0.78964  0.15793  0.07948  Biso   1.000  Cl
  Cl10     1.0000 0.71051  0.84224  0.92094  Biso   1.000  Cl
  Cl11     1.0000 0.49997  0.42056  0.07855  Biso   1.000  Cl
  Cl12     1.0000 0.50002  0.57961  0.92163  Biso   1.000  Cl
  H1       1.0000 0.16044  1.00000  0.08500  Biso   1.000  H
  H2       1.0000 0.33943  0.00010  0.91548  Biso   1.000  H
  H3       1.0000 0.13179  0.58451  0.08461  Biso   1.000  H
  H4       1.0000 0.36809  0.41539  0.91518  Biso   1.000  H
  H5       1.0000 0.16061  0.58437  0.49983  Biso   1.000  H
  H6       1.0000 0.33953  0.41564  0.50025  Biso   1.000  H
  H7       1.0000 0.66036  0.99978  0.08479  Biso   1.000  H
  H8       1.0000 0.83948  0.00010  0.91554  Biso   1.000  H
  H9       1.0000 0.63188  0.58460  0.08471  Biso   1.000  H
  H10      1.0000 0.86834  0.41564  0.91559  Biso   1.000  H
  H11      1.0000 0.66045  0.58451  0.49970  Biso   1.000  H
  H12      1.0000 0.83965  0.41518  0.50011  Biso   1.000  H
