data_image0
_cell_length_a       14.9832
_cell_length_b       13.7248
_cell_length_c       17.1273
_cell_angle_alpha    89.9939
_cell_angle_beta     90.0028
_cell_angle_gamma    123.236

_symmetry_space_group_name_H-M    "P 1"
_symmetry_int_tables_number       1

loop_
  _symmetry_equiv_pos_as_xyz
  'x, y, z'

loop_
  _atom_site_label
  _atom_site_occupancy
  _atom_site_fract_x
  _atom_site_fract_y
  _atom_site_fract_z
  _atom_site_thermal_displace_type
  _atom_site_B_iso_or_equiv
  _atom_site_type_symbol
  Fe1      1.0000 0.75520  0.50997  0.25004  Biso   1.000  Fe
  Fe2      1.0000 0.24528  0.48967  0.75004  Biso   1.000  Fe
  Al1      1.0000 0.73775  0.27236  0.25004  Biso   1.000  Al
  Al2      1.0000 0.53405  0.27175  0.24996  Biso   1.000  Al
  Al3      1.0000 0.26414  0.72714  0.75005  Biso   1.000  Al
  Al4      1.0000 0.46510  0.72733  0.74993  Biso   1.000  Al
  H1       1.0000 0.67087  0.05543  0.43579  Biso   1.000  H
  H2       1.0000 0.37797  0.31418  0.42961  Biso   1.000  H
  H3       1.0000 0.95718  0.63838  0.44750  Biso   1.000  H
  H4       1.0000 0.33022  0.94428  0.93602  Biso   1.000  H
  H5       1.0000 0.62276  0.68565  0.92966  Biso   1.000  H
  H6       1.0000 0.04277  0.36162  0.94721  Biso   1.000  H
  H7       1.0000 0.61703  0.94613  0.56287  Biso   1.000  H
  H8       1.0000 0.06423  0.68545  0.57082  Biso   1.000  H
  H9       1.0000 0.31877  0.36171  0.55311  Biso   1.000  H
  H10      1.0000 0.38397  0.05362  0.06303  Biso   1.000  H
  H11      1.0000 0.93571  0.31458  0.07055  Biso   1.000  H
  H12      1.0000 0.68193  0.63820  0.05319  Biso   1.000  H
  H13      1.0000 0.32931  0.94414  0.56387  Biso   1.000  H
  H14      1.0000 0.62284  0.68579  0.57041  Biso   1.000  H
  H15      1.0000 0.04269  0.36128  0.55314  Biso   1.000  H
  H16      1.0000 0.67222  0.05640  0.06372  Biso   1.000  H
  H17      1.0000 0.37762  0.31390  0.07032  Biso   1.000  H
  H18      1.0000 0.95745  0.63904  0.05249  Biso   1.000  H
  H19      1.0000 0.38301  0.05345  0.43682  Biso   1.000  H
  H20      1.0000 0.93558  0.31397  0.42980  Biso   1.000  H
  H21      1.0000 0.68225  0.63849  0.44698  Biso   1.000  H
  H22      1.0000 0.61825  0.94690  0.93674  Biso   1.000  H
  H23      1.0000 0.06456  0.68591  0.92923  Biso   1.000  H
  H24      1.0000 0.31862  0.36158  0.94677  Biso   1.000  H
  C1       1.0000 0.59619  0.03028  0.46425  Biso   1.000  C
  C2       1.0000 0.43091  0.39530  0.46078  Biso   1.000  C
  C3       1.0000 0.97679  0.57867  0.47117  Biso   1.000  C
  C4       1.0000 0.40496  0.96963  0.96449  Biso   1.000  C
  C5       1.0000 0.56978  0.60460  0.96091  Biso   1.000  C
  C6       1.0000 0.02323  0.42137  0.97091  Biso   1.000  C
  C7       1.0000 0.56672  0.97041  0.53479  Biso   1.000  C
  C8       1.0000 0.03567  0.60442  0.53950  Biso   1.000  C
  C9       1.0000 0.39821  0.42127  0.52920  Biso   1.000  C
  C10      1.0000 0.43444  0.02953  0.03500  Biso   1.000  C
  C11      1.0000 0.96435  0.39565  0.03926  Biso   1.000  C
  C12      1.0000 0.60246  0.57864  0.02932  Biso   1.000  C
  C13      1.0000 0.40397  0.96934  0.53532  Biso   1.000  C
  C14      1.0000 0.56993  0.60474  0.53915  Biso   1.000  C
  C15      1.0000 0.02311  0.42095  0.52935  Biso   1.000  C
  C16      1.0000 0.59744  0.03108  0.03535  Biso   1.000  C
  C17      1.0000 0.43061  0.39506  0.03920  Biso   1.000  C
  C18      1.0000 0.97701  0.57926  0.02889  Biso   1.000  C
  C19      1.0000 0.43341  0.02921  0.46479  Biso   1.000  C
  C20      1.0000 0.96421  0.39509  0.46101  Biso   1.000  C
  C21      1.0000 0.60275  0.57887  0.47078  Biso   1.000  C
  C22      1.0000 0.56789  0.97109  0.96485  Biso   1.000  C
  C23      1.0000 0.03592  0.60490  0.96059  Biso   1.000  C
  C24      1.0000 0.39803  0.42112  0.97076  Biso   1.000  C
  C25      1.0000 0.56360  0.12824  0.35505  Biso   1.000  C
  C26      1.0000 0.52965  0.05989  0.42883  Biso   1.000  C
  C27      1.0000 0.57120  0.44696  0.35891  Biso   1.000  C
  C28      1.0000 0.53350  0.47415  0.43101  Biso   1.000  C
  C29      1.0000 0.87609  0.44701  0.35909  Biso   1.000  C
  C30      1.0000 0.94086  0.47402  0.43131  Biso   1.000  C
  C31      1.0000 0.43753  0.87188  0.85509  Biso   1.000  C
  C32      1.0000 0.47155  0.94020  0.92905  Biso   1.000  C
  C33      1.0000 0.42924  0.55277  0.85870  Biso   1.000  C
  C34      1.0000 0.46722  0.52582  0.93111  Biso   1.000  C
  C35      1.0000 0.12468  0.55287  0.85882  Biso   1.000  C
  C36      1.0000 0.05941  0.52602  0.93110  Biso   1.000  C
  C37      1.0000 0.43681  0.87176  0.64481  Biso   1.000  C
  C38      1.0000 0.47054  0.93981  0.57072  Biso   1.000  C
  C39      1.0000 0.12448  0.55252  0.64138  Biso   1.000  C
  C40      1.0000 0.05923  0.52563  0.56909  Biso   1.000  C
  C41      1.0000 0.42931  0.55294  0.64123  Biso   1.000  C
  C42      1.0000 0.46735  0.52596  0.56888  Biso   1.000  C
  C43      1.0000 0.56456  0.12860  0.14472  Biso   1.000  C
  C44      1.0000 0.53079  0.06042  0.07087  Biso   1.000  C
  C45      1.0000 0.87625  0.44779  0.14105  Biso   1.000  C
  C46      1.0000 0.94103  0.47465  0.06884  Biso   1.000  C
  C47      1.0000 0.57077  0.44660  0.14115  Biso   1.000  C
  C48      1.0000 0.53315  0.47388  0.06904  Biso   1.000  C
  O1       1.0000 0.65382  0.15685  0.32630  Biso   1.000  O
  O2       1.0000 0.50613  0.34568  0.32738  Biso   1.000  O
  O3       1.0000 0.85896  0.52211  0.33411  Biso   1.000  O
  O4       1.0000 0.34736  0.84371  0.82663  Biso   1.000  O
  O5       1.0000 0.49500  0.65392  0.82744  Biso   1.000  O
  O6       1.0000 0.14188  0.47814  0.83382  Biso   1.000  O
  O7       1.0000 0.49900  0.84395  0.67317  Biso   1.000  O
  O8       1.0000 0.16050  0.65373  0.67259  Biso   1.000  O
  O9       1.0000 0.33709  0.47826  0.66631  Biso   1.000  O
  O10      1.0000 0.50257  0.15660  0.17335  Biso   1.000  O
  O11      1.0000 0.83990  0.34671  0.17275  Biso   1.000  O
  O12      1.0000 0.66332  0.52162  0.16613  Biso   1.000  O
  O13      1.0000 0.34673  0.84369  0.67343  Biso   1.000  O
  O14      1.0000 0.49507  0.65420  0.67238  Biso   1.000  O
  O15      1.0000 0.14172  0.47779  0.66637  Biso   1.000  O
  O16      1.0000 0.65487  0.15739  0.17343  Biso   1.000  O
  O17      1.0000 0.50575  0.34508  0.17244  Biso   1.000  O
  O18      1.0000 0.85884  0.52282  0.16575  Biso   1.000  O
  O19      1.0000 0.50178  0.15658  0.32653  Biso   1.000  O
  O20      1.0000 0.83939  0.34565  0.32767  Biso   1.000  O
  O21      1.0000 0.66393  0.52193  0.33417  Biso   1.000  O
  O22      1.0000 0.49964  0.84400  0.82666  Biso   1.000  O
  O23      1.0000 0.16075  0.65415  0.82763  Biso   1.000  O
  O24      1.0000 0.33697  0.47806  0.83368  Biso   1.000  O
  O25      1.0000 0.67241  0.34506  0.25003  Biso   1.000  O
  O26      1.0000 0.32865  0.65553  0.75000  Biso   1.000  O
