data_image0
_cell_length_a       6.64524
_cell_length_b       15.3234
_cell_length_c       15.3197
_cell_angle_alpha    117.961
_cell_angle_beta     98.2964
_cell_angle_gamma    98.317

_symmetry_space_group_name_H-M    "P 1"
_symmetry_int_tables_number       1

loop_
  _symmetry_equiv_pos_as_xyz
  'x, y, z'

loop_
  _atom_site_label
  _atom_site_occupancy
  _atom_site_fract_x
  _atom_site_fract_y
  _atom_site_fract_z
  _atom_site_thermal_displace_type
  _atom_site_B_iso_or_equiv
  _atom_site_type_symbol
  Fe1      1.0000 0.20700  0.32684  0.22360  Biso   1.000  Fe
  Fe2      1.0000 0.79300  0.67316  0.77641  Biso   1.000  Fe
  Fe3      1.0000 0.88013  0.39675  0.17314  Biso   1.000  Fe
  Fe4      1.0000 0.11987  0.60325  0.82686  Biso   1.000  Fe
  Fe5      1.0000 0.48342  0.27636  0.10318  Biso   1.000  Fe
  Fe6      1.0000 0.51658  0.72364  0.89682  Biso   1.000  Fe
  H1       1.0000 0.38007  0.02212  0.05838  Biso   1.000  H
  H2       1.0000 0.61993  0.97788  0.94161  Biso   1.000  H
  H3       1.0000 0.35793  0.53619  0.47780  Biso   1.000  H
  H4       1.0000 0.64206  0.46381  0.52220  Biso   1.000  H
  H5       1.0000 0.17776  0.55798  0.03590  Biso   1.000  H
  H6       1.0000 0.82223  0.44202  0.96410  Biso   1.000  H
  C1       1.0000 0.91124  0.08488  0.03839  Biso   1.000  C
  C2       1.0000 0.08876  0.91512  0.96161  Biso   1.000  C
  C3       1.0000 0.17367  0.54653  0.58488  Biso   1.000  C
  C4       1.0000 0.82633  0.45347  0.41512  Biso   1.000  C
  C5       1.0000 0.37276  0.46150  0.04639  Biso   1.000  C
  C6       1.0000 0.62723  0.53850  0.95361  Biso   1.000  C
  C7       1.0000 0.13249  0.09937  0.07271  Biso   1.000  C
  C8       1.0000 0.86752  0.90063  0.92729  Biso   1.000  C
  C9       1.0000 0.03310  0.47329  0.40061  Biso   1.000  C
  C10      1.0000 0.96690  0.52670  0.59939  Biso   1.000  C
  C11      1.0000 0.55994  0.42737  0.02672  Biso   1.000  C
  C12      1.0000 0.44005  0.57263  0.97328  Biso   1.000  C
  C13      1.0000 0.21288  0.01285  0.03312  Biso   1.000  C
  C14      1.0000 0.78712  0.98715  0.96688  Biso   1.000  C
  C15      1.0000 0.20003  0.52024  0.48712  Biso   1.000  C
  C16      1.0000 0.79997  0.47975  0.51288  Biso   1.000  C
  C17      1.0000 0.31993  0.53290  0.02006  Biso   1.000  C
  C18      1.0000 0.68006  0.46710  0.97994  Biso   1.000  C
  C19      1.0000 0.80304  0.16748  0.07541  Biso   1.000  C
  C20      1.0000 0.19697  0.83253  0.92459  Biso   1.000  C
  C21      1.0000 0.63547  0.40790  0.33254  Biso   1.000  C
  C22      1.0000 0.36453  0.59210  0.66746  Biso   1.000  C
  C23      1.0000 0.22756  0.42446  0.09196  Biso   1.000  C
  C24      1.0000 0.77244  0.57554  0.90804  Biso   1.000  C
  O1       1.0000 0.90124  0.25510  0.15607  Biso   1.000  O
  O2       1.0000 0.09876  0.74490  0.84392  Biso   1.000  O
  O3       1.0000 0.64610  0.40090  0.24490  Biso   1.000  O
  O4       1.0000 0.35390  0.59910  0.75511  Biso   1.000  O
  O5       1.0000 0.24520  0.34384  0.09895  Biso   1.000  O
  O6       1.0000 0.75480  0.65616  0.90105  Biso   1.000  O
  O7       1.0000 0.61443  0.15587  0.03318  Biso   1.000  O
  O8       1.0000 0.38557  0.84414  0.96682  Biso   1.000  O
  O9       1.0000 0.45846  0.37736  0.34418  Biso   1.000  O
  O10      1.0000 0.54154  0.62264  0.65582  Biso   1.000  O
  O11      1.0000 0.08114  0.46667  0.12259  Biso   1.000  O
  O12      1.0000 0.91886  0.53333  0.87741  Biso   1.000  O
  O13      1.0000 0.26683  0.18995  0.13889  Biso   1.000  O
  O14      1.0000 0.73317  0.81005  0.86111  Biso   1.000  O
  O15      1.0000 0.07691  0.44893  0.31002  Biso   1.000  O
  O16      1.0000 0.92308  0.55107  0.68998  Biso   1.000  O
  O17      1.0000 0.62809  0.36117  0.05108  Biso   1.000  O
  O18      1.0000 0.37191  0.63883  0.94892  Biso   1.000  O
