data_image0
_cell_length_a       14.8821
_cell_length_b       16.6073
_cell_length_c       16.6073
_cell_angle_alpha    111.483
_cell_angle_beta     107.382
_cell_angle_gamma    107.382

_symmetry_space_group_name_H-M    "P 1"
_symmetry_int_tables_number       1

loop_
  _symmetry_equiv_pos_as_xyz
  'x, y, z'

loop_
  _atom_site_label
  _atom_site_occupancy
  _atom_site_fract_x
  _atom_site_fract_y
  _atom_site_fract_z
  _atom_site_thermal_displace_type
  _atom_site_B_iso_or_equiv
  _atom_site_type_symbol
  Mn1      1.0000 0.40885  0.31776  0.65886  Biso   1.000  Mn
  Mn2      1.0000 0.75000  0.34111  0.65889  Biso   1.000  Mn
  Mn3      1.0000 0.09116  0.34115  0.68224  Biso   1.000  Mn
  Mn4      1.0000 0.59116  0.68224  0.34115  Biso   1.000  Mn
  Mn5      1.0000 0.25000  0.65889  0.34111  Biso   1.000  Mn
  Mn6      1.0000 0.90884  0.65885  0.31776  Biso   1.000  Mn
  Mn7      1.0000 0.25001  0.39402  0.60598  Biso   1.000  Mn
  Mn8      1.0000 0.64406  0.39407  0.78806  Biso   1.000  Mn
  Mn9      1.0000 0.85594  0.21194  0.60593  Biso   1.000  Mn
  Mn10     1.0000 0.75000  0.60598  0.39402  Biso   1.000  Mn
  Mn11     1.0000 0.35594  0.60593  0.21195  Biso   1.000  Mn
  Mn12     1.0000 0.14406  0.78805  0.39407  Biso   1.000  Mn
  H1       1.0000 0.35440  0.54546  0.96950  Biso   1.000  H
  H2       1.0000 0.38491  0.03052  0.57600  Biso   1.000  H
  H3       1.0000 0.80889  0.42410  0.45458  Biso   1.000  H
  H4       1.0000 0.11508  0.42400  0.96948  Biso   1.000  H
  H5       1.0000 0.69111  0.54543  0.57590  Biso   1.000  H
  H6       1.0000 0.14560  0.03049  0.45455  Biso   1.000  H
  H7       1.0000 0.64560  0.45454  0.03050  Biso   1.000  H
  H8       1.0000 0.61509  0.96948  0.42400  Biso   1.000  H
  H9       1.0000 0.19111  0.57590  0.54542  Biso   1.000  H
  H10      1.0000 0.88492  0.57600  0.03052  Biso   1.000  H
  H11      1.0000 0.30889  0.45457  0.42410  Biso   1.000  H
  H12      1.0000 0.85440  0.96951  0.54546  Biso   1.000  H
  C1       1.0000 0.42272  0.46003  0.90473  Biso   1.000  C
  C2       1.0000 0.33701  0.42404  0.80718  Biso   1.000  C
  C3       1.0000 0.41848  0.52544  0.98407  Biso   1.000  C
  C4       1.0000 0.50510  0.43286  0.91983  Biso   1.000  C
  C5       1.0000 0.51793  0.09529  0.55527  Biso   1.000  C
  C6       1.0000 0.52976  0.19287  0.61684  Biso   1.000  C
  C7       1.0000 0.43439  0.01595  0.54137  Biso   1.000  C
  C8       1.0000 0.58517  0.08013  0.51296  Biso   1.000  C
  C9       1.0000 0.96268  0.44478  0.54003  Biso   1.000  C
  C10      1.0000 0.91294  0.38321  0.57601  Biso   1.000  C
  C11      1.0000 0.89300  0.45862  0.47455  Biso   1.000  C
  C12      1.0000 0.07223  0.48703  0.56717  Biso   1.000  C
  C13      1.0000 0.98206  0.44472  0.90470  Biso   1.000  C
  C14      1.0000 0.97023  0.38316  0.80713  Biso   1.000  C
  C15      1.0000 0.06560  0.45863  0.98404  Biso   1.000  C
  C16      1.0000 0.91483  0.48704  0.91987  Biso   1.000  C
  C17      1.0000 0.53731  0.45996  0.55522  Biso   1.000  C
  C18      1.0000 0.58705  0.42399  0.61679  Biso   1.000  C
  C19      1.0000 0.60700  0.52545  0.54139  Biso   1.000  C
  C20      1.0000 0.42776  0.43283  0.51296  Biso   1.000  C
  C21      1.0000 0.07729  0.09527  0.53998  Biso   1.000  C
  C22      1.0000 0.16299  0.19282  0.57597  Biso   1.000  C
  C23      1.0000 0.08152  0.01593  0.47456  Biso   1.000  C
  C24      1.0000 0.99490  0.08017  0.56714  Biso   1.000  C
  C25      1.0000 0.57728  0.53998  0.09528  Biso   1.000  C
  C26      1.0000 0.66299  0.57596  0.19282  Biso   1.000  C
  C27      1.0000 0.58152  0.47456  0.01594  Biso   1.000  C
  C28      1.0000 0.49490  0.56714  0.08017  Biso   1.000  C
  C29      1.0000 0.48207  0.90471  0.44473  Biso   1.000  C
  C30      1.0000 0.47024  0.80713  0.38317  Biso   1.000  C
  C31      1.0000 0.56561  0.98405  0.45863  Biso   1.000  C
  C32      1.0000 0.41483  0.91987  0.48704  Biso   1.000  C
  C33      1.0000 0.03731  0.55522  0.45996  Biso   1.000  C
  C34      1.0000 0.08706  0.61679  0.42399  Biso   1.000  C
  C35      1.0000 0.10700  0.54138  0.52544  Biso   1.000  C
  C36      1.0000 0.92776  0.51297  0.43283  Biso   1.000  C
  C37      1.0000 0.01793  0.55527  0.09529  Biso   1.000  C
  C38      1.0000 0.02977  0.61684  0.19286  Biso   1.000  C
  C39      1.0000 0.93440  0.54137  0.01595  Biso   1.000  C
  C40      1.0000 0.08517  0.51296  0.08013  Biso   1.000  C
  C41      1.0000 0.46269  0.54004  0.44478  Biso   1.000  C
  C42      1.0000 0.41295  0.57601  0.38321  Biso   1.000  C
  C43      1.0000 0.39300  0.47455  0.45862  Biso   1.000  C
  C44      1.0000 0.57224  0.56717  0.48704  Biso   1.000  C
  C45      1.0000 0.92271  0.90473  0.46002  Biso   1.000  C
  C46      1.0000 0.83701  0.80719  0.42404  Biso   1.000  C
  C47      1.0000 0.91848  0.98407  0.52544  Biso   1.000  C
  C48      1.0000 0.00510  0.91983  0.43286  Biso   1.000  C
  S1       1.0000 0.50648  0.33805  0.82634  Biso   1.000  S
  S2       1.0000 0.68006  0.17364  0.51169  Biso   1.000  S
  S3       1.0000 0.16838  0.48830  0.66195  Biso   1.000  S
  S4       1.0000 0.81994  0.48831  0.82636  Biso   1.000  S
  S5       1.0000 0.33162  0.33805  0.51170  Biso   1.000  S
  S6       1.0000 0.99353  0.17367  0.66195  Biso   1.000  S
  S7       1.0000 0.49352  0.66195  0.17367  Biso   1.000  S
  S8       1.0000 0.31994  0.82636  0.48831  Biso   1.000  S
  S9       1.0000 0.83162  0.51170  0.33805  Biso   1.000  S
  S10      1.0000 0.18006  0.51169  0.17364  Biso   1.000  S
  S11      1.0000 0.66838  0.66196  0.48830  Biso   1.000  S
  S12      1.0000 0.00648  0.82633  0.33805  Biso   1.000  S
  O1       1.0000 0.36288  0.42324  0.73861  Biso   1.000  O
  O2       1.0000 0.24398  0.40005  0.79659  Biso   1.000  O
  O3       1.0000 0.62422  0.26142  0.68465  Biso   1.000  O
  O4       1.0000 0.44733  0.20347  0.60342  Biso   1.000  O
  O5       1.0000 0.93961  0.31543  0.57680  Biso   1.000  O
  O6       1.0000 0.84391  0.39659  0.60002  Biso   1.000  O
  O7       1.0000 0.87578  0.31535  0.73858  Biso   1.000  O
  O8       1.0000 0.05266  0.39657  0.79653  Biso   1.000  O
  O9       1.0000 0.56039  0.42320  0.68457  Biso   1.000  O
  O10      1.0000 0.65608  0.39997  0.60341  Biso   1.000  O
  O11      1.0000 0.13713  0.26139  0.57676  Biso   1.000  O
  O12      1.0000 0.25602  0.20341  0.59995  Biso   1.000  O
  O13      1.0000 0.63713  0.57676  0.26140  Biso   1.000  O
  O14      1.0000 0.75602  0.59995  0.20341  Biso   1.000  O
  O15      1.0000 0.37579  0.73858  0.31535  Biso   1.000  O
  O16      1.0000 0.55267  0.79653  0.39658  Biso   1.000  O
  O17      1.0000 0.06039  0.68457  0.42320  Biso   1.000  O
  O18      1.0000 0.15608  0.60341  0.39998  Biso   1.000  O
  O19      1.0000 0.12422  0.68465  0.26142  Biso   1.000  O
  O20      1.0000 0.94733  0.60342  0.20347  Biso   1.000  O
  O21      1.0000 0.43961  0.57680  0.31543  Biso   1.000  O
  O22      1.0000 0.34392  0.60003  0.39659  Biso   1.000  O
  O23      1.0000 0.86287  0.73861  0.42324  Biso   1.000  O
  O24      1.0000 0.74398  0.79659  0.40005  Biso   1.000  O
