data_image0
_cell_length_a       15.4859
_cell_length_b       22.4072
_cell_length_c       22.4182
_cell_angle_alpha    118.626
_cell_angle_beta     96.6183
_cell_angle_gamma    96.6505

_symmetry_space_group_name_H-M    "P 1"
_symmetry_int_tables_number       1

loop_
  _symmetry_equiv_pos_as_xyz
  'x, y, z'

loop_
  _atom_site_label
  _atom_site_occupancy
  _atom_site_fract_x
  _atom_site_fract_y
  _atom_site_fract_z
  _atom_site_thermal_displace_type
  _atom_site_B_iso_or_equiv
  _atom_site_type_symbol
  Co1      1.0000 0.40210  0.10705  0.30352  Biso   1.000  Co
  Co2      1.0000 0.09800  0.89292  0.69663  Biso   1.000  Co
  Co3      1.0000 0.25029  0.19631  0.30316  Biso   1.000  Co
  Co4      1.0000 0.24967  0.80346  0.69661  Biso   1.000  Co
  Co5      1.0000 0.09864  0.19662  0.39271  Biso   1.000  Co
  Co6      1.0000 0.40146  0.80353  0.60727  Biso   1.000  Co
  Co7      1.0000 0.90209  0.10706  0.30352  Biso   1.000  Co
  Co8      1.0000 0.59799  0.89292  0.69663  Biso   1.000  Co
  Co9      1.0000 0.75030  0.19630  0.30315  Biso   1.000  Co
  Co10     1.0000 0.74967  0.80346  0.69662  Biso   1.000  Co
  Co11     1.0000 0.59862  0.19661  0.39271  Biso   1.000  Co
  Co12     1.0000 0.90146  0.80353  0.60728  Biso   1.000  Co
  H1       1.0000 0.31526  0.37918  0.38902  Biso   1.000  H
  H2       1.0000 0.18455  0.62075  0.61065  Biso   1.000  H
  H3       1.0000 0.12119  0.11121  0.49030  Biso   1.000  H
  H4       1.0000 0.37909  0.88916  0.51008  Biso   1.000  H
  H5       1.0000 0.37565  0.00988  0.12078  Biso   1.000  H
  H6       1.0000 0.12424  0.98981  0.87931  Biso   1.000  H
  H7       1.0000 0.18496  0.11028  0.12053  Biso   1.000  H
  H8       1.0000 0.31487  0.88941  0.87942  Biso   1.000  H
  H9       1.0000 0.37950  0.01007  0.38940  Biso   1.000  H
  H10      1.0000 0.12078  0.99031  0.61098  Biso   1.000  H
  H11      1.0000 0.12472  0.37940  0.48937  Biso   1.000  H
  H12      1.0000 0.37518  0.62068  0.51028  Biso   1.000  H
  H13      1.0000 0.81526  0.37918  0.38902  Biso   1.000  H
  H14      1.0000 0.68455  0.62075  0.61065  Biso   1.000  H
  H15      1.0000 0.62119  0.11121  0.49030  Biso   1.000  H
  H16      1.0000 0.87909  0.88916  0.51008  Biso   1.000  H
  H17      1.0000 0.87565  0.00988  0.12078  Biso   1.000  H
  H18      1.0000 0.62424  0.98981  0.87931  Biso   1.000  H
  H19      1.0000 0.68496  0.11027  0.12053  Biso   1.000  H
  H20      1.0000 0.81487  0.88941  0.87942  Biso   1.000  H
  H21      1.0000 0.87950  0.01007  0.38940  Biso   1.000  H
  H22      1.0000 0.62078  0.99031  0.61098  Biso   1.000  H
  H23      1.0000 0.62471  0.37940  0.48937  Biso   1.000  H
  H24      1.0000 0.87517  0.62068  0.51028  Biso   1.000  H
  C1       1.0000 0.41061  0.31551  0.39319  Biso   1.000  C
  C2       1.0000 0.08928  0.68445  0.60644  Biso   1.000  C
  C3       1.0000 0.28630  0.89376  0.57836  Biso   1.000  C
  C4       1.0000 0.21408  0.10671  0.42211  Biso   1.000  C
  C5       1.0000 0.00283  0.07784  0.18438  Biso   1.000  C
  C6       1.0000 0.49710  0.92181  0.81564  Biso   1.000  C
  C7       1.0000 0.08984  0.10598  0.18431  Biso   1.000  C
  C8       1.0000 0.41006  0.89366  0.81566  Biso   1.000  C
  C9       1.0000 0.21350  0.92203  0.60658  Biso   1.000  C
  C10      1.0000 0.28687  0.07843  0.39390  Biso   1.000  C
  C11      1.0000 0.49766  0.31558  0.42136  Biso   1.000  C
  C12      1.0000 0.00226  0.68443  0.57829  Biso   1.000  C
  C13      1.0000 0.38155  0.37765  0.40966  Biso   1.000  C
  C14      1.0000 0.11827  0.62230  0.59001  Biso   1.000  C
  C15      1.0000 0.17698  0.09042  0.46798  Biso   1.000  C
  C16      1.0000 0.32335  0.91000  0.53243  Biso   1.000  C
  C17      1.0000 0.44270  0.03209  0.12229  Biso   1.000  C
  C18      1.0000 0.05716  0.96761  0.87775  Biso   1.000  C
  C19      1.0000 0.11868  0.08966  0.12215  Biso   1.000  C
  C20      1.0000 0.38115  0.91005  0.87782  Biso   1.000  C
  C21      1.0000 0.17657  0.96794  0.59025  Biso   1.000  C
  C22      1.0000 0.32375  0.03246  0.41016  Biso   1.000  C
  C23      1.0000 0.05759  0.37777  0.46724  Biso   1.000  C
  C24      1.0000 0.44226  0.62226  0.53245  Biso   1.000  C
  C25      1.0000 0.44113  0.43863  0.45487  Biso   1.000  C
  C26      1.0000 0.05861  0.56136  0.54488  Biso   1.000  C
  C27      1.0000 0.21393  0.04520  0.48378  Biso   1.000  C
  C28      1.0000 0.28625  0.95509  0.51650  Biso   1.000  C
  C29      1.0000 0.47182  0.01627  0.06134  Biso   1.000  C
  C30      1.0000 0.02794  0.98352  0.93867  Biso   1.000  C
  C31      1.0000 0.05883  0.04472  0.06128  Biso   1.000  C
  C32      1.0000 0.44092  0.95508  0.93872  Biso   1.000  C
  C33      1.0000 0.21373  0.98376  0.54511  Biso   1.000  C
  C34      1.0000 0.28646  0.01652  0.45517  Biso   1.000  C
  C35      1.0000 0.02817  0.43868  0.48330  Biso   1.000  C
  C36      1.0000 0.47158  0.56132  0.51645  Biso   1.000  C
  C37      1.0000 0.91061  0.31551  0.39320  Biso   1.000  C
  C38      1.0000 0.58928  0.68445  0.60644  Biso   1.000  C
  C39      1.0000 0.78630  0.89376  0.57836  Biso   1.000  C
  C40      1.0000 0.71408  0.10672  0.42211  Biso   1.000  C
  C41      1.0000 0.50282  0.07785  0.18438  Biso   1.000  C
  C42      1.0000 0.99710  0.92181  0.81564  Biso   1.000  C
  C43      1.0000 0.58984  0.10599  0.18431  Biso   1.000  C
  C44      1.0000 0.91006  0.89366  0.81566  Biso   1.000  C
  C45      1.0000 0.71350  0.92203  0.60658  Biso   1.000  C
  C46      1.0000 0.78687  0.07843  0.39391  Biso   1.000  C
  C47      1.0000 0.99766  0.31558  0.42136  Biso   1.000  C
  C48      1.0000 0.50226  0.68444  0.57829  Biso   1.000  C
  C49      1.0000 0.88155  0.37765  0.40966  Biso   1.000  C
  C50      1.0000 0.61827  0.62230  0.59001  Biso   1.000  C
  C51      1.0000 0.67698  0.09043  0.46799  Biso   1.000  C
  C52      1.0000 0.82334  0.90999  0.53243  Biso   1.000  C
  C53      1.0000 0.94270  0.03208  0.12229  Biso   1.000  C
  C54      1.0000 0.55716  0.96761  0.87775  Biso   1.000  C
  C55      1.0000 0.61868  0.08966  0.12215  Biso   1.000  C
  C56      1.0000 0.88115  0.91005  0.87782  Biso   1.000  C
  C57      1.0000 0.67657  0.96794  0.59025  Biso   1.000  C
  C58      1.0000 0.82375  0.03246  0.41017  Biso   1.000  C
  C59      1.0000 0.55759  0.37777  0.46723  Biso   1.000  C
  C60      1.0000 0.94226  0.62226  0.53245  Biso   1.000  C
  C61      1.0000 0.94113  0.43863  0.45487  Biso   1.000  C
  C62      1.0000 0.55861  0.56136  0.54488  Biso   1.000  C
  C63      1.0000 0.71393  0.04520  0.48378  Biso   1.000  C
  C64      1.0000 0.78625  0.95508  0.51650  Biso   1.000  C
  C65      1.0000 0.97182  0.01627  0.06134  Biso   1.000  C
  C66      1.0000 0.52794  0.98352  0.93867  Biso   1.000  C
  C67      1.0000 0.55883  0.04472  0.06128  Biso   1.000  C
  C68      1.0000 0.94092  0.95508  0.93872  Biso   1.000  C
  C69      1.0000 0.71373  0.98376  0.54511  Biso   1.000  C
  C70      1.0000 0.78646  0.01652  0.45518  Biso   1.000  C
  C71      1.0000 0.52817  0.43868  0.48330  Biso   1.000  C
  C72      1.0000 0.97158  0.56132  0.51645  Biso   1.000  C
  N1       1.0000 0.42768  0.20906  0.35400  Biso   1.000  N
  N2       1.0000 0.07239  0.79092  0.64564  Biso   1.000  N
  N3       1.0000 0.25045  0.14568  0.35457  Biso   1.000  N
  N4       1.0000 0.24974  0.85455  0.64567  Biso   1.000  N
  N5       1.0000 0.07309  0.14521  0.29077  Biso   1.000  N
  N6       1.0000 0.42699  0.85443  0.70923  Biso   1.000  N
  N7       1.0000 0.36948  0.24733  0.35099  Biso   1.000  N
  N8       1.0000 0.13051  0.75259  0.64862  Biso   1.000  N
  N9       1.0000 0.30634  0.85153  0.60433  Biso   1.000  N
  N10      1.0000 0.19393  0.14882  0.39599  Biso   1.000  N
  N11      1.0000 0.49576  0.10387  0.25252  Biso   1.000  N
  N12      1.0000 0.00427  0.89579  0.74752  Biso   1.000  N
  N13      1.0000 0.13115  0.14817  0.25239  Biso   1.000  N
  N14      1.0000 0.36884  0.85144  0.74755  Biso   1.000  N
  N15      1.0000 0.30700  0.10434  0.35164  Biso   1.000  N
  N16      1.0000 0.19326  0.89598  0.64871  Biso   1.000  N
  N17      1.0000 0.00492  0.24744  0.39535  Biso   1.000  N
  N18      1.0000 0.49510  0.75259  0.60432  Biso   1.000  N
  N19      1.0000 0.92767  0.20906  0.35400  Biso   1.000  N
  N20      1.0000 0.57239  0.79092  0.64564  Biso   1.000  N
  N21      1.0000 0.75046  0.14568  0.35457  Biso   1.000  N
  N22      1.0000 0.74974  0.85455  0.64567  Biso   1.000  N
  N23      1.0000 0.57309  0.14520  0.29077  Biso   1.000  N
  N24      1.0000 0.92699  0.85443  0.70923  Biso   1.000  N
  N25      1.0000 0.86948  0.24733  0.35099  Biso   1.000  N
  N26      1.0000 0.63051  0.75259  0.64862  Biso   1.000  N
  N27      1.0000 0.80634  0.85153  0.60433  Biso   1.000  N
  N28      1.0000 0.69393  0.14882  0.39599  Biso   1.000  N
  N29      1.0000 0.99576  0.10388  0.25252  Biso   1.000  N
  N30      1.0000 0.50427  0.89579  0.74752  Biso   1.000  N
  N31      1.0000 0.63115  0.14816  0.25239  Biso   1.000  N
  N32      1.0000 0.86885  0.85144  0.74755  Biso   1.000  N
  N33      1.0000 0.80701  0.10434  0.35164  Biso   1.000  N
  N34      1.0000 0.69326  0.89598  0.64872  Biso   1.000  N
  N35      1.0000 0.50492  0.24745  0.39535  Biso   1.000  N
  N36      1.0000 0.99510  0.75259  0.60432  Biso   1.000  N
  Cl1      1.0000 0.00038  0.11157  0.38889  Biso   1.000  Cl
  Cl2      1.0000 0.49977  0.88876  0.61145  Biso   1.000  Cl
  Cl3      1.0000 0.30583  0.11095  0.22238  Biso   1.000  Cl
  Cl4      1.0000 0.19405  0.88855  0.77756  Biso   1.000  Cl
  Cl5      1.0000 0.19461  0.27745  0.38804  Biso   1.000  Cl
  Cl6      1.0000 0.30527  0.72249  0.61148  Biso   1.000  Cl
  Cl7      1.0000 0.50038  0.11157  0.38890  Biso   1.000  Cl
  Cl8      1.0000 0.99977  0.88876  0.61145  Biso   1.000  Cl
  Cl9      1.0000 0.80583  0.11095  0.22238  Biso   1.000  Cl
  Cl10     1.0000 0.69405  0.88855  0.77756  Biso   1.000  Cl
  Cl11     1.0000 0.69461  0.27743  0.38804  Biso   1.000  Cl
  Cl12     1.0000 0.80527  0.72249  0.61148  Biso   1.000  Cl
  O1       1.0000 0.08702  0.50004  0.52817  Biso   1.000  O
  O2       1.0000 0.41267  0.49995  0.47168  Biso   1.000  O
  O3       1.0000 0.17726  0.02855  0.52849  Biso   1.000  O
  O4       1.0000 0.32268  0.97150  0.47157  Biso   1.000  O
  O5       1.0000 0.41270  0.97169  0.00006  Biso   1.000  O
  O6       1.0000 0.08699  0.02821  0.99995  Biso   1.000  O
  O7       1.0000 0.58702  0.50004  0.52817  Biso   1.000  O
  O8       1.0000 0.91267  0.49995  0.47168  Biso   1.000  O
  O9       1.0000 0.67726  0.02855  0.52849  Biso   1.000  O
  O10      1.0000 0.82268  0.97150  0.47156  Biso   1.000  O
  O11      1.0000 0.91270  0.97169  0.00006  Biso   1.000  O
  O12      1.0000 0.58699  0.02821  0.99995  Biso   1.000  O
  O13      1.0000 0.37615  0.00335  0.25211  Biso   1.000  O
  H25      1.0000 0.32498  0.97836  0.21552  Biso   1.000  H
  H26      1.0000 0.40363  0.96793  0.25415  Biso   1.000  H
