data_image0
_cell_length_a       8.03522
_cell_length_b       22.5391
_cell_length_c       22.5506
_cell_angle_alpha    118.551
_cell_angle_beta     96.8106
_cell_angle_gamma    96.8516

_symmetry_space_group_name_H-M    "P 1"
_symmetry_int_tables_number       1

loop_
  _symmetry_equiv_pos_as_xyz
  'x, y, z'

loop_
  _atom_site_label
  _atom_site_occupancy
  _atom_site_fract_x
  _atom_site_fract_y
  _atom_site_fract_z
  _atom_site_thermal_displace_type
  _atom_site_B_iso_or_equiv
  _atom_site_type_symbol
  Ni1      1.0000 0.80601  0.11084  0.30532  Biso   1.000  Ni
  Ni2      1.0000 0.19399  0.88916  0.69468  Biso   1.000  Ni
  Ni3      1.0000 0.50066  0.19454  0.30518  Biso   1.000  Ni
  Ni4      1.0000 0.49934  0.80546  0.69482  Biso   1.000  Ni
  Ni5      1.0000 0.19526  0.19462  0.38892  Biso   1.000  Ni
  Ni6      1.0000 0.80474  0.80538  0.61108  Biso   1.000  Ni
  H1       1.0000 0.63761  0.37981  0.39363  Biso   1.000  H
  H2       1.0000 0.36240  0.62019  0.60637  Biso   1.000  H
  H3       1.0000 0.24523  0.10704  0.48674  Biso   1.000  H
  H4       1.0000 0.75477  0.89296  0.51326  Biso   1.000  H
  H5       1.0000 0.75771  0.01384  0.12019  Biso   1.000  H
  H6       1.0000 0.24228  0.98617  0.87981  Biso   1.000  H
  H7       1.0000 0.36308  0.10607  0.11989  Biso   1.000  H
  H8       1.0000 0.63691  0.89393  0.88011  Biso   1.000  H
  H9       1.0000 0.75556  0.01325  0.39317  Biso   1.000  H
  H10      1.0000 0.24444  0.98676  0.60683  Biso   1.000  H
  H11      1.0000 0.24326  0.37997  0.48578  Biso   1.000  H
  H12      1.0000 0.75674  0.62003  0.51422  Biso   1.000  H
  C1       1.0000 0.82426  0.31667  0.39476  Biso   1.000  C
  C2       1.0000 0.17574  0.68333  0.60524  Biso   1.000  C
  C3       1.0000 0.57062  0.89482  0.57827  Biso   1.000  C
  C4       1.0000 0.42939  0.10518  0.42173  Biso   1.000  C
  C5       1.0000 0.00744  0.07827  0.18325  Biso   1.000  C
  C6       1.0000 0.99256  0.92173  0.81675  Biso   1.000  C
  C7       1.0000 0.17683  0.10485  0.18317  Biso   1.000  C
  C8       1.0000 0.82317  0.89515  0.81683  Biso   1.000  C
  C9       1.0000 0.42836  0.92171  0.60510  Biso   1.000  C
  C10      1.0000 0.57164  0.07829  0.39490  Biso   1.000  C
  C11      1.0000 0.99373  0.31670  0.42133  Biso   1.000  C
  C12      1.0000 0.00628  0.68330  0.57867  Biso   1.000  C
  C13      1.0000 0.76760  0.37846  0.41222  Biso   1.000  C
  C14      1.0000 0.23240  0.62154  0.58778  Biso   1.000  C
  C15      1.0000 0.35589  0.08806  0.46641  Biso   1.000  C
  C16      1.0000 0.64411  0.91194  0.53359  Biso   1.000  C
  C17      1.0000 0.88903  0.03384  0.12155  Biso   1.000  C
  C18      1.0000 0.11096  0.96615  0.87845  Biso   1.000  C
  C19      1.0000 0.23316  0.08749  0.12135  Biso   1.000  C
  C20      1.0000 0.76684  0.91251  0.87865  Biso   1.000  C
  C21      1.0000 0.35511  0.96640  0.58792  Biso   1.000  C
  C22      1.0000 0.64489  0.03361  0.41208  Biso   1.000  C
  C23      1.0000 0.11187  0.37851  0.46582  Biso   1.000  C
  C24      1.0000 0.88813  0.62149  0.53418  Biso   1.000  C
  C25      1.0000 0.88466  0.43893  0.45615  Biso   1.000  C
  C26      1.0000 0.11535  0.56106  0.54386  Biso   1.000  C
  C27      1.0000 0.42880  0.04402  0.48291  Biso   1.000  C
  C28      1.0000 0.57120  0.95599  0.51709  Biso   1.000  C
  C29      1.0000 0.94563  0.01724  0.06105  Biso   1.000  C
  C30      1.0000 0.05436  0.98276  0.93895  Biso   1.000  C
  C31      1.0000 0.11570  0.04371  0.06097  Biso   1.000  C
  C32      1.0000 0.88428  0.95629  0.93903  Biso   1.000  C
  C33      1.0000 0.42839  0.98289  0.54394  Biso   1.000  C
  C34      1.0000 0.57162  0.01711  0.45607  Biso   1.000  C
  C35      1.0000 0.05483  0.43898  0.48259  Biso   1.000  C
  C36      1.0000 0.94518  0.56102  0.51741  Biso   1.000  C
  N1       1.0000 0.85643  0.21140  0.35540  Biso   1.000  N
  N2       1.0000 0.14357  0.78860  0.64460  Biso   1.000  N
  N3       1.0000 0.50066  0.14436  0.35560  Biso   1.000  N
  N4       1.0000 0.49934  0.85564  0.64440  Biso   1.000  N
  N5       1.0000 0.14496  0.14421  0.28843  Biso   1.000  N
  N6       1.0000 0.85503  0.85579  0.71157  Biso   1.000  N
  N7       1.0000 0.74335  0.24911  0.35307  Biso   1.000  N
  N8       1.0000 0.25665  0.75089  0.64693  Biso   1.000  N
  N9       1.0000 0.60976  0.85310  0.60418  Biso   1.000  N
  N10      1.0000 0.39024  0.14690  0.39582  Biso   1.000  N
  N11      1.0000 0.99415  0.10416  0.25080  Biso   1.000  N
  N12      1.0000 0.00585  0.89584  0.74919  Biso   1.000  N
  N13      1.0000 0.25793  0.14655  0.25067  Biso   1.000  N
  N14      1.0000 0.74206  0.85345  0.74933  Biso   1.000  N
  N15      1.0000 0.61100  0.10413  0.35314  Biso   1.000  N
  N16      1.0000 0.38900  0.89587  0.64686  Biso   1.000  N
  N17      1.0000 0.00718  0.24913  0.39544  Biso   1.000  N
  N18      1.0000 0.99282  0.75087  0.60456  Biso   1.000  N
  Cl1      1.0000 0.00058  0.10895  0.39108  Biso   1.000  Cl
  Cl2      1.0000 0.99942  0.89105  0.60892  Biso   1.000  Cl
  Cl3      1.0000 0.60953  0.10889  0.21765  Biso   1.000  Cl
  Cl4      1.0000 0.39047  0.89111  0.78235  Biso   1.000  Cl
  Cl5      1.0000 0.39164  0.28223  0.39062  Biso   1.000  Cl
  Cl6      1.0000 0.60836  0.71777  0.60938  Biso   1.000  Cl
  O1       1.0000 0.16984  0.50005  0.52622  Biso   1.000  O
  O2       1.0000 0.83016  0.49995  0.47378  Biso   1.000  O
  O3       1.0000 0.35740  0.02675  0.52668  Biso   1.000  O
  O4       1.0000 0.64260  0.97325  0.47332  Biso   1.000  O
  O5       1.0000 0.83027  0.97373  0.00009  Biso   1.000  O
  O6       1.0000 0.16972  0.02627  0.99992  Biso   1.000  O
  O7       1.0000 0.75438  0.00770  0.25402  Biso   1.000  O
  H13      1.0000 0.64210  0.98296  0.24798  Biso   1.000  H
  H14      1.0000 0.81755  0.97237  0.23138  Biso   1.000  H
