data_image0
_cell_length_a       8.03712
_cell_length_b       14.4168
_cell_length_c       14.4167
_cell_angle_alpha    116.641
_cell_angle_beta     100.709
_cell_angle_gamma    100.71

_symmetry_space_group_name_H-M    "P 1"
_symmetry_int_tables_number       1

loop_
  _symmetry_equiv_pos_as_xyz
  'x, y, z'

loop_
  _atom_site_label
  _atom_site_occupancy
  _atom_site_fract_x
  _atom_site_fract_y
  _atom_site_fract_z
  _atom_site_thermal_displace_type
  _atom_site_B_iso_or_equiv
  _atom_site_type_symbol
  Ni1      1.0000 0.50000  0.28941  0.21059  Biso   1.000  Ni
  Ni2      1.0000 0.50000  0.71059  0.78941  Biso   1.000  Ni
  Ni3      1.0000 0.78936  0.28937  0.07872  Biso   1.000  Ni
  Ni4      1.0000 0.21063  0.71063  0.92127  Biso   1.000  Ni
  Ni5      1.0000 0.21064  0.42128  0.21063  Biso   1.000  Ni
  Ni6      1.0000 0.78936  0.57872  0.78937  Biso   1.000  Ni
  H1       1.0000 0.31421  0.00002  0.07798  Biso   1.000  H
  H2       1.0000 0.68579  0.99998  0.92202  Biso   1.000  H
  H3       1.0000 0.26393  0.57807  0.07807  Biso   1.000  H
  H4       1.0000 0.73607  0.42193  0.92193  Biso   1.000  H
  H5       1.0000 0.31421  0.57799  0.50003  Biso   1.000  H
  H6       1.0000 0.68579  0.42201  0.49997  Biso   1.000  H
  C1       1.0000 0.13554  0.09535  0.06992  Biso   1.000  C
  C2       1.0000 0.86446  0.90465  0.93009  Biso   1.000  C
  C3       1.0000 0.56551  0.43003  0.02536  Biso   1.000  C
  C4       1.0000 0.43449  0.56997  0.97465  Biso   1.000  C
  C5       1.0000 0.04016  0.47465  0.40468  Biso   1.000  C
  C6       1.0000 0.95985  0.52535  0.59533  Biso   1.000  C
  C7       1.0000 0.13553  0.56992  0.59535  Biso   1.000  C
  C8       1.0000 0.86446  0.43008  0.40465  Biso   1.000  C
  C9       1.0000 0.43449  0.47465  0.06997  Biso   1.000  C
  C10      1.0000 0.56551  0.52535  0.93003  Biso   1.000  C
  C11      1.0000 0.95985  0.09533  0.02535  Biso   1.000  C
  C12      1.0000 0.04015  0.90467  0.97465  Biso   1.000  C
  C13      1.0000 0.18059  0.00002  0.04613  Biso   1.000  C
  C14      1.0000 0.81940  0.99998  0.95386  Biso   1.000  C
  C15      1.0000 0.36571  0.54622  0.04621  Biso   1.000  C
  C16      1.0000 0.63429  0.45378  0.95378  Biso   1.000  C
  C17      1.0000 0.18059  0.54614  0.50002  Biso   1.000  C
  C18      1.0000 0.81941  0.45386  0.49997  Biso   1.000  C
  N1       1.0000 0.23701  0.20304  0.13607  Biso   1.000  N
  N2       1.0000 0.76300  0.79696  0.86393  Biso   1.000  N
  N3       1.0000 0.60084  0.36388  0.06687  Biso   1.000  N
  N4       1.0000 0.39916  0.63612  0.93313  Biso   1.000  N
  N5       1.0000 0.03396  0.43312  0.29700  Biso   1.000  N
  N6       1.0000 0.96604  0.56688  0.70301  Biso   1.000  N
  N7       1.0000 0.76299  0.36393  0.29696  Biso   1.000  N
  N8       1.0000 0.23700  0.63607  0.70304  Biso   1.000  N
  N9       1.0000 0.39917  0.43313  0.13612  Biso   1.000  N
  N10      1.0000 0.60084  0.56687  0.86388  Biso   1.000  N
  N11      1.0000 0.96604  0.20300  0.06688  Biso   1.000  N
  N12      1.0000 0.03396  0.79699  0.93312  Biso   1.000  N
  N13      1.0000 0.13098  0.26195  0.13095  Biso   1.000  N
  N14      1.0000 0.86901  0.73804  0.86905  Biso   1.000  N
  N15      1.0000 0.50000  0.36905  0.13095  Biso   1.000  N
  N16      1.0000 0.50000  0.63095  0.86905  Biso   1.000  N
  N17      1.0000 0.86902  0.36906  0.23804  Biso   1.000  N
  N18      1.0000 0.13098  0.63094  0.76195  Biso   1.000  N
  Cl1      1.0000 0.42408  0.42410  0.34812  Biso   1.000  Cl
  Cl2      1.0000 0.57592  0.57590  0.65188  Biso   1.000  Cl
  Cl3      1.0000 0.57592  0.15188  0.07590  Biso   1.000  Cl
  Cl4      1.0000 0.42408  0.84812  0.92410  Biso   1.000  Cl
  Cl5      1.0000 0.00000  0.42406  0.07594  Biso   1.000  Cl
  Cl6      1.0000 0.00000  0.57594  0.92406  Biso   1.000  Cl
  O1       1.0000 0.50000  0.20790  0.29210  Biso   1.000  O
  H7       1.0000 0.54334  0.14597  0.26929  Biso   1.000  H
  H8       1.0000 0.46492  0.21429  0.35430  Biso   1.000  H
