data_image0
_cell_length_a       17.6961
_cell_length_b       17.7036
_cell_length_c       17.7217
_cell_angle_alpha    96.6307
_cell_angle_beta     96.7804
_cell_angle_gamma    96.742

_symmetry_space_group_name_H-M    "P 1"
_symmetry_int_tables_number       1

loop_
  _symmetry_equiv_pos_as_xyz
  'x, y, z'

loop_
  _atom_site_label
  _atom_site_occupancy
  _atom_site_fract_x
  _atom_site_fract_y
  _atom_site_fract_z
  _atom_site_thermal_displace_type
  _atom_site_B_iso_or_equiv
  _atom_site_type_symbol
  Cu1      1.0000 0.09951  0.09912  0.70429  Biso   1.000  Cu
  Cu2      1.0000 0.09617  0.69519  0.09451  Biso   1.000  Cu
  Cu3      1.0000 0.69637  0.09573  0.09502  Biso   1.000  Cu
  Cu4      1.0000 0.14573  0.82918  0.14359  Biso   1.000  Cu
  Cu5      1.0000 0.82957  0.14480  0.14403  Biso   1.000  Cu
  Cu6      1.0000 0.15653  0.15532  0.85788  Biso   1.000  Cu
  H1       1.0000 0.18115  0.52073  0.78772  Biso   1.000  H
  H2       1.0000 0.18179  0.38753  0.81835  Biso   1.000  H
  H3       1.0000 0.05076  0.43345  0.56738  Biso   1.000  H
  H4       1.0000 0.05594  0.30047  0.59692  Biso   1.000  H
  H5       1.0000 0.10824  0.61231  0.77419  Biso   1.000  H
  H6       1.0000 0.10902  0.69437  0.85673  Biso   1.000  H
  H7       1.0000 0.52231  0.78950  0.18030  Biso   1.000  H
  H8       1.0000 0.38913  0.82034  0.18096  Biso   1.000  H
  H9       1.0000 0.43447  0.56885  0.05080  Biso   1.000  H
  H10      1.0000 0.30147  0.59867  0.05610  Biso   1.000  H
  H11      1.0000 0.61339  0.77556  0.10711  Biso   1.000  H
  H12      1.0000 0.69512  0.85812  0.10716  Biso   1.000  H
  H13      1.0000 0.79164  0.17809  0.52087  Biso   1.000  H
  H14      1.0000 0.82273  0.17847  0.38800  Biso   1.000  H
  H15      1.0000 0.56988  0.05028  0.43313  Biso   1.000  H
  H16      1.0000 0.60001  0.05525  0.30032  Biso   1.000  H
  H17      1.0000 0.77626  0.10642  0.61226  Biso   1.000  H
  H18      1.0000 0.85891  0.10871  0.69369  Biso   1.000  H
  H19      1.0000 0.17876  0.79074  0.52038  Biso   1.000  H
  H20      1.0000 0.17940  0.82174  0.38744  Biso   1.000  H
  H21      1.0000 0.05062  0.56928  0.43279  Biso   1.000  H
  H22      1.0000 0.05595  0.59931  0.29996  Biso   1.000  H
  H23      1.0000 0.10684  0.77556  0.61165  Biso   1.000  H
  H24      1.0000 0.10801  0.85801  0.69286  Biso   1.000  H
  H25      1.0000 0.52142  0.18234  0.78732  Biso   1.000  H
  H26      1.0000 0.38818  0.18256  0.81785  Biso   1.000  H
  H27      1.0000 0.43405  0.05095  0.56764  Biso   1.000  H
  H28      1.0000 0.30101  0.05575  0.59703  Biso   1.000  H
  H29      1.0000 0.61315  0.10949  0.77459  Biso   1.000  H
  H30      1.0000 0.69524  0.10909  0.85720  Biso   1.000  H
  H31      1.0000 0.79086  0.52146  0.17869  Biso   1.000  H
  H32      1.0000 0.82160  0.38834  0.17973  Biso   1.000  H
  H33      1.0000 0.56928  0.43383  0.05035  Biso   1.000  H
  H34      1.0000 0.59908  0.30087  0.05588  Biso   1.000  H
  H35      1.0000 0.77622  0.61266  0.10572  Biso   1.000  H
  H36      1.0000 0.85887  0.69452  0.10700  Biso   1.000  H
  H37      1.0000 0.12060  0.53899  0.53724  Biso   1.000  H
  H38      1.0000 0.12812  0.93519  0.93353  Biso   1.000  H
  H39      1.0000 0.53949  0.53857  0.12044  Biso   1.000  H
  H40      1.0000 0.93613  0.93534  0.12627  Biso   1.000  H
  H41      1.0000 0.53961  0.12062  0.53719  Biso   1.000  H
  H42      1.0000 0.93629  0.12774  0.93438  Biso   1.000  H
  C1       1.0000 0.11902  0.33576  0.70972  Biso   1.000  C
  C2       1.0000 0.15219  0.47287  0.74607  Biso   1.000  C
  C3       1.0000 0.15362  0.39842  0.76337  Biso   1.000  C
  C4       1.0000 0.11541  0.48729  0.67532  Biso   1.000  C
  C5       1.0000 0.08095  0.42387  0.62204  Biso   1.000  C
  C6       1.0000 0.08302  0.34905  0.63856  Biso   1.000  C
  C7       1.0000 0.12085  0.25648  0.73108  Biso   1.000  C
  C8       1.0000 0.11978  0.79396  0.98240  Biso   1.000  C
  C9       1.0000 0.11307  0.56684  0.65773  Biso   1.000  C
  C10      1.0000 0.11044  0.62665  0.71633  Biso   1.000  C
  C11      1.0000 0.11763  0.81217  0.90175  Biso   1.000  C
  C12      1.0000 0.11165  0.75233  0.84156  Biso   1.000  C
  C13      1.0000 0.33710  0.71147  0.11852  Biso   1.000  C
  C14      1.0000 0.47424  0.74792  0.15150  Biso   1.000  C
  C15      1.0000 0.39977  0.76529  0.15285  Biso   1.000  C
  C16      1.0000 0.48842  0.67700  0.11503  Biso   1.000  C
  C17      1.0000 0.42499  0.62359  0.08074  Biso   1.000  C
  C18      1.0000 0.35034  0.64021  0.08281  Biso   1.000  C
  C19      1.0000 0.25714  0.72995  0.11947  Biso   1.000  C
  C20      1.0000 0.79489  0.98360  0.11777  Biso   1.000  C
  C21      1.0000 0.56775  0.65915  0.11257  Biso   1.000  C
  C22      1.0000 0.62761  0.71765  0.10950  Biso   1.000  C
  C23      1.0000 0.81309  0.90318  0.11596  Biso   1.000  C
  C24      1.0000 0.75310  0.84296  0.11003  Biso   1.000  C
  C25      1.0000 0.71324  0.11708  0.33592  Biso   1.000  C
  C26      1.0000 0.74984  0.14962  0.47287  Biso   1.000  C
  C27      1.0000 0.76736  0.15079  0.39855  Biso   1.000  C
  C28      1.0000 0.67840  0.11398  0.48697  Biso   1.000  C
  C29      1.0000 0.62490  0.07983  0.42362  Biso   1.000  C
  C30      1.0000 0.64170  0.08170  0.34913  Biso   1.000  C
  C31      1.0000 0.73145  0.11886  0.25615  Biso   1.000  C
  C32      1.0000 0.98589  0.11976  0.79582  Biso   1.000  C
  C33      1.0000 0.66010  0.11243  0.56613  Biso   1.000  C
  C34      1.0000 0.71839  0.10968  0.62624  Biso   1.000  C
  C35      1.0000 0.90412  0.11721  0.81161  Biso   1.000  C
  C36      1.0000 0.84394  0.11146  0.75164  Biso   1.000  C
  C37      1.0000 0.11789  0.71241  0.33544  Biso   1.000  C
  C38      1.0000 0.15028  0.74897  0.47242  Biso   1.000  C
  C39      1.0000 0.15160  0.76645  0.39804  Biso   1.000  C
  C40      1.0000 0.11442  0.67767  0.48661  Biso   1.000  C
  C41      1.0000 0.08032  0.62422  0.42328  Biso   1.000  C
  C42      1.0000 0.08238  0.64097  0.34874  Biso   1.000  C
  C43      1.0000 0.11969  0.73065  0.25550  Biso   1.000  C
  C44      1.0000 0.11993  0.98487  0.79492  Biso   1.000  C
  C45      1.0000 0.11254  0.65942  0.56580  Biso   1.000  C
  C46      1.0000 0.10973  0.71767  0.62575  Biso   1.000  C
  C47      1.0000 0.11708  0.90313  0.81077  Biso   1.000  C
  C48      1.0000 0.11102  0.84303  0.75087  Biso   1.000  C
  C49      1.0000 0.33634  0.11923  0.70956  Biso   1.000  C
  C50      1.0000 0.47354  0.15307  0.74580  Biso   1.000  C
  C51      1.0000 0.39906  0.15427  0.76303  Biso   1.000  C
  C52      1.0000 0.48795  0.11606  0.67529  Biso   1.000  C
  C53      1.0000 0.42447  0.08128  0.62212  Biso   1.000  C
  C54      1.0000 0.34961  0.08313  0.63857  Biso   1.000  C
  C55      1.0000 0.25706  0.12066  0.73097  Biso   1.000  C
  C56      1.0000 0.79501  0.11951  0.98285  Biso   1.000  C
  C57      1.0000 0.56755  0.11366  0.65789  Biso   1.000  C
  C58      1.0000 0.62743  0.11125  0.71669  Biso   1.000  C
  C59      1.0000 0.81318  0.11760  0.90236  Biso   1.000  C
  C60      1.0000 0.75324  0.11180  0.84212  Biso   1.000  C
  C61      1.0000 0.71226  0.33641  0.11791  Biso   1.000  C
  C62      1.0000 0.74907  0.47344  0.15022  Biso   1.000  C
  C63      1.0000 0.76638  0.39900  0.15176  Biso   1.000  C
  C64      1.0000 0.67787  0.48764  0.11408  Biso   1.000  C
  C65      1.0000 0.62422  0.42430  0.08010  Biso   1.000  C
  C66      1.0000 0.64082  0.34969  0.08230  Biso   1.000  C
  C67      1.0000 0.73060  0.25662  0.11938  Biso   1.000  C
  C68      1.0000 0.98451  0.79415  0.11738  Biso   1.000  C
  C69      1.0000 0.65995  0.56696  0.11194  Biso   1.000  C
  C70      1.0000 0.71838  0.62686  0.10877  Biso   1.000  C
  C71      1.0000 0.90396  0.81238  0.11581  Biso   1.000  C
  C72      1.0000 0.84369  0.75245  0.10992  Biso   1.000  C
  C73      1.0000 0.11459  0.58413  0.58262  Biso   1.000  C
  C74      1.0000 0.10950  0.70293  0.70186  Biso   1.000  C
  C75      1.0000 0.11003  0.76636  0.76501  Biso   1.000  C
  C76      1.0000 0.12186  0.88827  0.88691  Biso   1.000  C
  C77      1.0000 0.58474  0.58391  0.11420  Biso   1.000  C
  C78      1.0000 0.70377  0.70305  0.10838  Biso   1.000  C
  C79      1.0000 0.76706  0.76638  0.10870  Biso   1.000  C
  C80      1.0000 0.88929  0.88852  0.12039  Biso   1.000  C
  C81      1.0000 0.58479  0.11475  0.58275  Biso   1.000  C
  C82      1.0000 0.70371  0.10992  0.70236  Biso   1.000  C
  C83      1.0000 0.76721  0.11039  0.76563  Biso   1.000  C
  C84      1.0000 0.88931  0.12175  0.88769  Biso   1.000  C
  O1       1.0000 0.09820  0.20040  0.67665  Biso   1.000  O
  O2       1.0000 0.14315  0.84924  0.03610  Biso   1.000  O
  O3       1.0000 0.09774  0.72427  0.99065  Biso   1.000  O
  O4       1.0000 0.14403  0.25081  0.80001  Biso   1.000  O
  O5       1.0000 0.20271  0.67489  0.09621  Biso   1.000  O
  O6       1.0000 0.85020  0.03766  0.14055  Biso   1.000  O
  O7       1.0000 0.72505  0.99201  0.09618  Biso   1.000  O
  O8       1.0000 0.24915  0.79932  0.14307  Biso   1.000  O
  O9       1.0000 0.67619  0.09649  0.20166  Biso   1.000  O
  O10      1.0000 0.03789  0.14208  0.85154  Biso   1.000  O
  O11      1.0000 0.99562  0.09829  0.72592  Biso   1.000  O
  O12      1.0000 0.80085  0.14247  0.24777  Biso   1.000  O
  O13      1.0000 0.09705  0.67535  0.20132  Biso   1.000  O
  O14      1.0000 0.14311  0.03674  0.85048  Biso   1.000  O
  O15      1.0000 0.09789  0.99494  0.72515  Biso   1.000  O
  O16      1.0000 0.14351  0.79997  0.24731  Biso   1.000  O
  O17      1.0000 0.20081  0.09756  0.67670  Biso   1.000  O
  O18      1.0000 0.85016  0.14280  0.03688  Biso   1.000  O
  O19      1.0000 0.72529  0.09736  0.99117  Biso   1.000  O
  O20      1.0000 0.25162  0.14401  0.79986  Biso   1.000  O
  O21      1.0000 0.67559  0.20199  0.09625  Biso   1.000  O
  O22      1.0000 0.03842  0.84953  0.14005  Biso   1.000  O
  O23      1.0000 0.99253  0.72439  0.09571  Biso   1.000  O
  O24      1.0000 0.79995  0.24827  0.14334  Biso   1.000  O
  O25      1.0000 0.20409  0.20332  0.94852  Biso   1.000  O
  H43      1.0000 0.23064  0.23011  0.99913  Biso   1.000  H
