data_image0
_cell_length_a       9.15942
_cell_length_b       14.1387
_cell_length_c       27.8056
_cell_angle_alpha    89.9741
_cell_angle_beta     89.8793
_cell_angle_gamma    90.2945

_symmetry_space_group_name_H-M    "P 1"
_symmetry_int_tables_number       1

loop_
  _symmetry_equiv_pos_as_xyz
  'x, y, z'

loop_
  _atom_site_label
  _atom_site_occupancy
  _atom_site_fract_x
  _atom_site_fract_y
  _atom_site_fract_z
  _atom_site_thermal_displace_type
  _atom_site_B_iso_or_equiv
  _atom_site_type_symbol
  C1       1.0000 0.93605  0.35487  0.31616  Biso   1.000  C
  C2       1.0000 0.07228  0.37414  0.33739  Biso   1.000  C
  C3       1.0000 0.15847  0.44846  0.31933  Biso   1.000  C
  C4       1.0000 0.11053  0.49959  0.27902  Biso   1.000  C
  C5       1.0000 0.97402  0.48024  0.25894  Biso   1.000  C
  C6       1.0000 0.88459  0.40877  0.27777  Biso   1.000  C
  C7       1.0000 0.84764  0.27464  0.33406  Biso   1.000  C
  C8       1.0000 0.92207  0.53395  0.21627  Biso   1.000  C
  C9       1.0000 0.33321  0.42815  0.38226  Biso   1.000  C
  C10      1.0000 0.47078  0.47294  0.40045  Biso   1.000  C
  C11      1.0000 0.60742  0.44551  0.38263  Biso   1.000  C
  C12      1.0000 0.73492  0.48747  0.39978  Biso   1.000  C
  C13      1.0000 0.73008  0.55874  0.43504  Biso   1.000  C
  C14      1.0000 0.59271  0.58547  0.45292  Biso   1.000  C
  C15      1.0000 0.46553  0.54277  0.43609  Biso   1.000  C
  C16      1.0000 0.86522  0.60356  0.45305  Biso   1.000  C
  C17      1.0000 0.98823  0.61573  0.42321  Biso   1.000  C
  C18      1.0000 0.11479  0.65856  0.44050  Biso   1.000  C
  C19      1.0000 0.12313  0.68937  0.48840  Biso   1.000  C
  C20      1.0000 0.00107  0.67813  0.51819  Biso   1.000  C
  C21      1.0000 0.87402  0.63638  0.50062  Biso   1.000  C
  C22      1.0000 0.26056  0.73261  0.50811  Biso   1.000  C
  C23      1.0000 0.44562  0.84271  0.48152  Biso   1.000  C
  C24      1.0000 0.49029  0.90722  0.44578  Biso   1.000  C
  C25      1.0000 0.62771  0.94960  0.44897  Biso   1.000  C
  C26      1.0000 0.71913  0.93093  0.48826  Biso   1.000  C
  C27      1.0000 0.67156  0.86988  0.52463  Biso   1.000  C
  C28      1.0000 0.53591  0.82448  0.52116  Biso   1.000  C
  C29      1.0000 0.68110  0.01416  0.41071  Biso   1.000  C
  C30      1.0000 0.76726  0.85255  0.56782  Biso   1.000  C
  C31      1.0000 0.06392  0.14479  0.81599  Biso   1.000  C
  C32      1.0000 0.92800  0.12521  0.83766  Biso   1.000  C
  C33      1.0000 0.84128  0.05155  0.81948  Biso   1.000  C
  C34      1.0000 0.88730  0.00104  0.77860  Biso   1.000  C
  C35      1.0000 0.02376  0.02037  0.75826  Biso   1.000  C
  C36      1.0000 0.11392  0.09125  0.77719  Biso   1.000  C
  C37      1.0000 0.15252  0.22471  0.83374  Biso   1.000  C
  C38      1.0000 0.07689  0.96721  0.71511  Biso   1.000  C
  C39      1.0000 0.66746  0.07234  0.88272  Biso   1.000  C
  C40      1.0000 0.52936  0.02809  0.90113  Biso   1.000  C
  C41      1.0000 0.39309  0.05599  0.88339  Biso   1.000  C
  C42      1.0000 0.26522  0.01401  0.90038  Biso   1.000  C
  C43      1.0000 0.26950  0.94223  0.93541  Biso   1.000  C
  C44      1.0000 0.40650  0.91498  0.95323  Biso   1.000  C
  C45      1.0000 0.53396  0.95774  0.93653  Biso   1.000  C
  C46      1.0000 0.13412  0.89719  0.95319  Biso   1.000  C
  C47      1.0000 0.01149  0.88571  0.92327  Biso   1.000  C
  C48      1.0000 0.88470  0.84260  0.94033  Biso   1.000  C
  C49      1.0000 0.87555  0.81093  0.98809  Biso   1.000  C
  C50      1.0000 0.99723  0.82143  0.01790  Biso   1.000  C
  C51      1.0000 0.12466  0.86334  0.00060  Biso   1.000  C
  C52      1.0000 0.73758  0.76741  0.00736  Biso   1.000  C
  C53      1.0000 0.55378  0.65753  0.98052  Biso   1.000  C
  C54      1.0000 0.50958  0.59339  0.94475  Biso   1.000  C
  C55      1.0000 0.37212  0.55097  0.94782  Biso   1.000  C
  C56      1.0000 0.28012  0.56932  0.98702  Biso   1.000  C
  C57      1.0000 0.32702  0.63008  0.02339  Biso   1.000  C
  C58      1.0000 0.46298  0.67568  0.02005  Biso   1.000  C
  C59      1.0000 0.31883  0.48576  0.90978  Biso   1.000  C
  C60      1.0000 0.23180  0.64531  0.06658  Biso   1.000  C
  C61      1.0000 0.06139  0.64590  0.68296  Biso   1.000  C
  C62      1.0000 0.92488  0.62566  0.66245  Biso   1.000  C
  C63      1.0000 0.83991  0.55106  0.68081  Biso   1.000  C
  C64      1.0000 0.88882  0.50023  0.72101  Biso   1.000  C
  C65      1.0000 0.02568  0.52067  0.74065  Biso   1.000  C
  C66      1.0000 0.11406  0.59250  0.72136  Biso   1.000  C
  C67      1.0000 0.14790  0.72742  0.66360  Biso   1.000  C
  C68      1.0000 0.07803  0.46724  0.78330  Biso   1.000  C
  C69      1.0000 0.66498  0.57192  0.61829  Biso   1.000  C
  C70      1.0000 0.52763  0.52732  0.59981  Biso   1.000  C
  C71      1.0000 0.39091  0.55499  0.61745  Biso   1.000  C
  C72      1.0000 0.26365  0.51294  0.60021  Biso   1.000  C
  C73      1.0000 0.26902  0.44157  0.56500  Biso   1.000  C
  C74      1.0000 0.40647  0.41478  0.54717  Biso   1.000  C
  C75      1.0000 0.53339  0.45748  0.56417  Biso   1.000  C
  C76      1.0000 0.13413  0.39654  0.54706  Biso   1.000  C
  C77      1.0000 0.01122  0.38459  0.57699  Biso   1.000  C
  C78      1.0000 0.88471  0.34156  0.55987  Biso   1.000  C
  C79      1.0000 0.87624  0.31028  0.51207  Biso   1.000  C
  C80      1.0000 0.99815  0.32132  0.48220  Biso   1.000  C
  C81      1.0000 0.12526  0.36327  0.49955  Biso   1.000  C
  C82      1.0000 0.73854  0.26707  0.49267  Biso   1.000  C
  C83      1.0000 0.55339  0.15713  0.51901  Biso   1.000  C
  C84      1.0000 0.50776  0.09233  0.55465  Biso   1.000  C
  C85      1.0000 0.37073  0.04997  0.55112  Biso   1.000  C
  C86      1.0000 0.28130  0.06889  0.51145  Biso   1.000  C
  C87      1.0000 0.32927  0.13020  0.47523  Biso   1.000  C
  C88      1.0000 0.46450  0.17601  0.47910  Biso   1.000  C
  C89      1.0000 0.31260  0.98477  0.58933  Biso   1.000  C
  C90      1.0000 0.23462  0.14584  0.43202  Biso   1.000  C
  C91      1.0000 0.93481  0.85469  0.18374  Biso   1.000  C
  C92      1.0000 0.07103  0.87384  0.16230  Biso   1.000  C
  C93      1.0000 0.15748  0.94801  0.18023  Biso   1.000  C
  C94      1.0000 0.10974  0.99916  0.22060  Biso   1.000  C
  C95      1.0000 0.97317  0.97994  0.24086  Biso   1.000  C
  C96      1.0000 0.88351  0.90861  0.22219  Biso   1.000  C
  C97      1.0000 0.84626  0.77452  0.16603  Biso   1.000  C
  C98      1.0000 0.92151  0.03361  0.28360  Biso   1.000  C
  C99      1.0000 0.33225  0.92749  0.11709  Biso   1.000  C
  C100     1.0000 0.47020  0.97207  0.09890  Biso   1.000  C
  C101     1.0000 0.60652  0.94402  0.11652  Biso   1.000  C
  C102     1.0000 0.73437  0.98601  0.09947  Biso   1.000  C
  C103     1.0000 0.73007  0.05798  0.06456  Biso   1.000  C
  C104     1.0000 0.59302  0.08535  0.04688  Biso   1.000  C
  C105     1.0000 0.46554  0.04254  0.06357  Biso   1.000  C
  C106     1.0000 0.86553  0.10294  0.04669  Biso   1.000  C
  C107     1.0000 0.98809  0.11458  0.07659  Biso   1.000  C
  C108     1.0000 0.11494  0.15760  0.05948  Biso   1.000  C
  C109     1.0000 0.12413  0.18904  0.01169  Biso   1.000  C
  C110     1.0000 0.00248  0.17837  0.98189  Biso   1.000  C
  C111     1.0000 0.87501  0.13649  0.99926  Biso   1.000  C
  C112     1.0000 0.26216  0.23246  0.99233  Biso   1.000  C
  C113     1.0000 0.44615  0.34221  0.01928  Biso   1.000  C
  C114     1.0000 0.49010  0.40638  0.05503  Biso   1.000  C
  C115     1.0000 0.62770  0.44875  0.05205  Biso   1.000  C
  C116     1.0000 0.72011  0.43049  0.01292  Biso   1.000  C
  C117     1.0000 0.67322  0.36987  0.97652  Biso   1.000  C
  C118     1.0000 0.53720  0.32430  0.97978  Biso   1.000  C
  C119     1.0000 0.67986  0.51373  0.09014  Biso   1.000  C
  C120     1.0000 0.76849  0.35443  0.93325  Biso   1.000  C
  H1       1.0000 0.11030  0.32914  0.36653  Biso   1.000  H
  H2       1.0000 0.18010  0.55492  0.26393  Biso   1.000  H
  H3       1.0000 0.77823  0.39423  0.26208  Biso   1.000  H
  H4       1.0000 0.34757  0.35225  0.37521  Biso   1.000  H
  H5       1.0000 0.24434  0.43649  0.40864  Biso   1.000  H
  H6       1.0000 0.61296  0.39048  0.35519  Biso   1.000  H
  H7       1.0000 0.84049  0.46394  0.38638  Biso   1.000  H
  H8       1.0000 0.58586  0.64127  0.47988  Biso   1.000  H
  H9       1.0000 0.35992  0.56343  0.45074  Biso   1.000  H
  H10      1.0000 0.98338  0.59345  0.38567  Biso   1.000  H
  H11      1.0000 0.20718  0.66979  0.41633  Biso   1.000  H
  H12      1.0000 0.00564  0.70263  0.55534  Biso   1.000  H
  H13      1.0000 0.78000  0.62921  0.52441  Biso   1.000  H
  H14      1.0000 0.24036  0.76583  0.54329  Biso   1.000  H
  H15      1.0000 0.34544  0.67822  0.51312  Biso   1.000  H
  H16      1.0000 0.41779  0.92202  0.41575  Biso   1.000  H
  H17      1.0000 0.82602  0.96434  0.49086  Biso   1.000  H
  H18      1.0000 0.50311  0.77724  0.55022  Biso   1.000  H
  H19      1.0000 0.89076  0.16975  0.86709  Biso   1.000  H
  H20      1.0000 0.81570  0.94711  0.76321  Biso   1.000  H
  H21      1.0000 0.22024  0.10520  0.76117  Biso   1.000  H
  H22      1.0000 0.65356  0.14831  0.87565  Biso   1.000  H
  H23      1.0000 0.75596  0.06401  0.90916  Biso   1.000  H
  H24      1.0000 0.38816  0.11108  0.85595  Biso   1.000  H
  H25      1.0000 0.16001  0.03770  0.88687  Biso   1.000  H
  H26      1.0000 0.41283  0.85843  0.97982  Biso   1.000  H
  H27      1.0000 0.63943  0.93656  0.95096  Biso   1.000  H
  H28      1.0000 0.01681  0.90871  0.88585  Biso   1.000  H
  H29      1.0000 0.79272  0.83183  0.91607  Biso   1.000  H
  H30      1.0000 0.99215  0.79610  0.05492  Biso   1.000  H
  H31      1.0000 0.21863  0.86993  0.02431  Biso   1.000  H
  H32      1.0000 0.75674  0.73457  0.04274  Biso   1.000  H
  H33      1.0000 0.65225  0.82168  0.01209  Biso   1.000  H
  H34      1.0000 0.58271  0.57846  0.91479  Biso   1.000  H
  H35      1.0000 0.17367  0.53533  0.98944  Biso   1.000  H
  H36      1.0000 0.49540  0.72301  0.04905  Biso   1.000  H
  H37      1.0000 0.88575  0.67073  0.63351  Biso   1.000  H
  H38      1.0000 0.82032  0.44462  0.73633  Biso   1.000  H
  H39      1.0000 0.22058  0.60787  0.73678  Biso   1.000  H
  H40      1.0000 0.65022  0.64759  0.62581  Biso   1.000  H
  H41      1.0000 0.75381  0.56455  0.59180  Biso   1.000  H
  H42      1.0000 0.38500  0.61031  0.64474  Biso   1.000  H
  H43      1.0000 0.15811  0.53659  0.61357  Biso   1.000  H
  H44      1.0000 0.41351  0.35875  0.52033  Biso   1.000  H
  H45      1.0000 0.63930  0.43678  0.54975  Biso   1.000  H
  H46      1.0000 0.01613  0.40731  0.61443  Biso   1.000  H
  H47      1.0000 0.79241  0.33055  0.58410  Biso   1.000  H
  H48      1.0000 0.99348  0.29650  0.44511  Biso   1.000  H
  H49      1.0000 0.21937  0.37045  0.47581  Biso   1.000  H
  H50      1.0000 0.75834  0.23388  0.45743  Biso   1.000  H
  H51      1.0000 0.65380  0.32158  0.48772  Biso   1.000  H
  H52      1.0000 0.57962  0.07718  0.58483  Biso   1.000  H
  H53      1.0000 0.17448  0.03553  0.50884  Biso   1.000  H
  H54      1.0000 0.49805  0.22401  0.45048  Biso   1.000  H
  H55      1.0000 0.10880  0.82889  0.13307  Biso   1.000  H
  H56      1.0000 0.17947  0.05439  0.23557  Biso   1.000  H
  H57      1.0000 0.77715  0.89413  0.23805  Biso   1.000  H
  H58      1.0000 0.34607  0.85151  0.12409  Biso   1.000  H
  H59      1.0000 0.24361  0.93619  0.09078  Biso   1.000  H
  H60      1.0000 0.61155  0.88850  0.14373  Biso   1.000  H
  H61      1.0000 0.83973  0.96201  0.11269  Biso   1.000  H
  H62      1.0000 0.58663  0.14177  0.02023  Biso   1.000  H
  H63      1.0000 0.36015  0.06363  0.04905  Biso   1.000  H
  H64      1.0000 0.98263  0.09174  0.11405  Biso   1.000  H
  H65      1.0000 0.20699  0.16852  0.08370  Biso   1.000  H
  H66      1.0000 0.00761  0.20340  0.94483  Biso   1.000  H
  H67      1.0000 0.78125  0.12968  0.97548  Biso   1.000  H
  H68      1.0000 0.24278  0.26566  0.95708  Biso   1.000  H
  H69      1.0000 0.34723  0.17810  0.98740  Biso   1.000  H
  H70      1.0000 0.41675  0.42146  0.08489  Biso   1.000  H
  H71      1.0000 0.82651  0.46454  0.01045  Biso   1.000  H
  H72      1.0000 0.50499  0.27718  0.95066  Biso   1.000  H
  O1       1.0000 0.73070  0.25057  0.31109  Biso   1.000  O
  O2       1.0000 0.88713  0.22899  0.37163  Biso   1.000  O
  O3       1.0000 0.28917  0.47545  0.33801  Biso   1.000  O
  O4       1.0000 0.31270  0.80230  0.47411  Biso   1.000  O
  O5       1.0000 0.73884  0.78701  0.59629  Biso   1.000  O
  O6       1.0000 0.87749  0.91068  0.57089  Biso   1.000  O
  O7       1.0000 0.81758  0.02811  0.40671  Biso   1.000  O
  O8       1.0000 0.78373  0.54097  0.21132  Biso   1.000  O
  O9       1.0000 0.01844  0.56786  0.18770  Biso   1.000  O
  O10      1.0000 0.58523  0.05360  0.38290  Biso   1.000  O
  O11      1.0000 0.26966  0.24892  0.81070  Biso   1.000  O
  O12      1.0000 0.11345  0.27060  0.87147  Biso   1.000  O
  O13      1.0000 0.71070  0.02457  0.83875  Biso   1.000  O
  O14      1.0000 0.68775  0.69750  0.97350  Biso   1.000  O
  O15      1.0000 0.25876  0.70743  0.09716  Biso   1.000  O
  O16      1.0000 0.11987  0.58739  0.06851  Biso   1.000  O
  O17      1.0000 0.18237  0.47191  0.90630  Biso   1.000  O
  O18      1.0000 0.21447  0.96349  0.70956  Biso   1.000  O
  O19      1.0000 0.98002  0.93196  0.68729  Biso   1.000  O
  O20      1.0000 0.41451  0.44591  0.88205  Biso   1.000  O
  O21      1.0000 0.26134  0.75342  0.68679  Biso   1.000  O
  O22      1.0000 0.10355  0.76646  0.62484  Biso   1.000  O
  O23      1.0000 0.70917  0.52348  0.66206  Biso   1.000  O
  O24      1.0000 0.68657  0.19733  0.52652  Biso   1.000  O
  O25      1.0000 0.26183  0.20826  0.40158  Biso   1.000  O
  O26      1.0000 0.12279  0.08787  0.43014  Biso   1.000  O
  O27      1.0000 0.17462  0.97758  0.59128  Biso   1.000  O
  O28      1.0000 0.21641  0.46029  0.78849  Biso   1.000  O
  O29      1.0000 0.98180  0.43286  0.81190  Biso   1.000  O
  O30      1.0000 0.40488  0.94236  0.61604  Biso   1.000  O
  O31      1.0000 0.72929  0.75056  0.18918  Biso   1.000  O
  O32      1.0000 0.88565  0.72874  0.12846  Biso   1.000  O
  O33      1.0000 0.28827  0.97481  0.16138  Biso   1.000  O
  O34      1.0000 0.31243  0.30194  0.02641  Biso   1.000  O
  O35      1.0000 0.74040  0.29225  0.90288  Biso   1.000  O
  O36      1.0000 0.88075  0.41192  0.93124  Biso   1.000  O
  O37      1.0000 0.81619  0.52804  0.09425  Biso   1.000  O
  O38      1.0000 0.78321  0.04057  0.28892  Biso   1.000  O
  O39      1.0000 0.01808  0.06757  0.31194  Biso   1.000  O
  O40      1.0000 0.58346  0.55339  0.11780  Biso   1.000  O
  O41      1.0000 0.53795  0.87499  0.71335  Biso   1.000  O
  Zn1      1.0000 0.68747  0.12429  0.33511  Biso   1.000  Zn
  Zn2      1.0000 0.98905  0.10339  0.37952  Biso   1.000  Zn
  Zn3      1.0000 0.31164  0.37564  0.83404  Biso   1.000  Zn
  Zn4      1.0000 0.01096  0.39583  0.87906  Biso   1.000  Zn
  Zn5      1.0000 0.35973  0.87882  0.67770  Biso   1.000  Zn
  Zn6      1.0000 0.02141  0.89603  0.62053  Biso   1.000  Zn
  Zn7      1.0000 0.68699  0.62413  0.16514  Biso   1.000  Zn
  Zn8      1.0000 0.98895  0.60360  0.12011  Biso   1.000  Zn
  H73      1.0000 0.63113  0.87299  0.73199  Biso   1.000  H
