data_image0
_cell_length_a       13.5356
_cell_length_b       19.7412
_cell_length_c       22.6051
_cell_angle_alpha    90.0136
_cell_angle_beta     90.1454
_cell_angle_gamma    89.9162

_symmetry_space_group_name_H-M    "P 1"
_symmetry_int_tables_number       1

loop_
  _symmetry_equiv_pos_as_xyz
  'x, y, z'

loop_
  _atom_site_label
  _atom_site_occupancy
  _atom_site_fract_x
  _atom_site_fract_y
  _atom_site_fract_z
  _atom_site_thermal_displace_type
  _atom_site_B_iso_or_equiv
  _atom_site_type_symbol
  Zn1      1.0000 0.99112  0.45733  0.35332  Biso   1.000  Zn
  Zn2      1.0000 0.99091  0.45713  0.85331  Biso   1.000  Zn
  Zn3      1.0000 0.06823  0.36152  0.44377  Biso   1.000  Zn
  Zn4      1.0000 0.06800  0.36120  0.94357  Biso   1.000  Zn
  Zn5      1.0000 0.00901  0.95713  0.39626  Biso   1.000  Zn
  Zn6      1.0000 0.02129  0.97335  0.91137  Biso   1.000  Zn
  Zn7      1.0000 0.93254  0.86120  0.30564  Biso   1.000  Zn
  Zn8      1.0000 0.93406  0.86371  0.80973  Biso   1.000  Zn
  Zn9      1.0000 0.49128  0.03938  0.14498  Biso   1.000  Zn
  Zn10     1.0000 0.49053  0.03940  0.64524  Biso   1.000  Zn
  Zn11     1.0000 0.56737  0.13554  0.05496  Biso   1.000  Zn
  Zn12     1.0000 0.56727  0.13599  0.55531  Biso   1.000  Zn
  Zn13     1.0000 0.50834  0.54001  0.10377  Biso   1.000  Zn
  Zn14     1.0000 0.50868  0.54016  0.60381  Biso   1.000  Zn
  Zn15     1.0000 0.43162  0.63605  0.19398  Biso   1.000  Zn
  Zn16     1.0000 0.43184  0.63579  0.69386  Biso   1.000  Zn
  H1       1.0000 0.27190  0.27970  0.32528  Biso   1.000  H
  H2       1.0000 0.27169  0.27952  0.82496  Biso   1.000  H
  H3       1.0000 0.25863  0.48221  0.25398  Biso   1.000  H
  H4       1.0000 0.25841  0.48218  0.75400  Biso   1.000  H
  H5       1.0000 0.50375  0.35267  0.21039  Biso   1.000  H
  H6       1.0000 0.50348  0.35270  0.71010  Biso   1.000  H
  H7       1.0000 0.50642  0.23399  0.19672  Biso   1.000  H
  H8       1.0000 0.50627  0.23424  0.69628  Biso   1.000  H
  H9       1.0000 0.53334  0.17474  0.25586  Biso   1.000  H
  H10      1.0000 0.53323  0.17482  0.75528  Biso   1.000  H
  H11      1.0000 0.54508  0.19736  0.35577  Biso   1.000  H
  H12      1.0000 0.54484  0.19715  0.85528  Biso   1.000  H
  H13      1.0000 0.78569  0.27033  0.46221  Biso   1.000  H
  H14      1.0000 0.78584  0.26960  0.96174  Biso   1.000  H
  H15      1.0000 0.75641  0.33721  0.28088  Biso   1.000  H
  H16      1.0000 0.75622  0.33716  0.78063  Biso   1.000  H
  H17      1.0000 0.72895  0.77925  0.42388  Biso   1.000  H
  H18      1.0000 0.72759  0.77852  0.92361  Biso   1.000  H
  H19      1.0000 0.74053  0.98204  0.49468  Biso   1.000  H
  H20      1.0000 0.74104  0.98138  0.99357  Biso   1.000  H
  H21      1.0000 0.49618  0.85250  0.03866  Biso   1.000  H
  H22      1.0000 0.49624  0.85234  0.53837  Biso   1.000  H
  H23      1.0000 0.49369  0.73423  0.05268  Biso   1.000  H
  H24      1.0000 0.49569  0.73348  0.55273  Biso   1.000  H
  H25      1.0000 0.46685  0.67428  0.99408  Biso   1.000  H
  H26      1.0000 0.46873  0.67396  0.49381  Biso   1.000  H
  H27      1.0000 0.45483  0.69594  0.39406  Biso   1.000  H
  H28      1.0000 0.45460  0.69605  0.89418  Biso   1.000  H
  H29      1.0000 0.21439  0.77024  0.28799  Biso   1.000  H
  H30      1.0000 0.21384  0.76897  0.78751  Biso   1.000  H
  H31      1.0000 0.24463  0.83679  0.46934  Biso   1.000  H
  H32      1.0000 0.24218  0.83665  0.96838  Biso   1.000  H
  H33      1.0000 0.77188  0.21695  0.17335  Biso   1.000  H
  H34      1.0000 0.77170  0.21706  0.67376  Biso   1.000  H
  H35      1.0000 0.75927  0.01477  0.24519  Biso   1.000  H
  H36      1.0000 0.75774  0.01437  0.74456  Biso   1.000  H
  H37      1.0000 0.00388  0.14438  0.28927  Biso   1.000  H
  H38      1.0000 0.00345  0.14236  0.78908  Biso   1.000  H
  H39      1.0000 0.00646  0.26263  0.30254  Biso   1.000  H
  H40      1.0000 0.00614  0.26172  0.80279  Biso   1.000  H
  H41      1.0000 0.03290  0.32203  0.24356  Biso   1.000  H
  H42      1.0000 0.03193  0.32143  0.74392  Biso   1.000  H
  H43      1.0000 0.04527  0.30051  0.14394  Biso   1.000  H
  H44      1.0000 0.04508  0.30061  0.64413  Biso   1.000  H
  H45      1.0000 0.28536  0.22731  0.03766  Biso   1.000  H
  H46      1.0000 0.28535  0.22760  0.53785  Biso   1.000  H
  H47      1.0000 0.25623  0.15922  0.21850  Biso   1.000  H
  H48      1.0000 0.25574  0.15904  0.71854  Biso   1.000  H
  H49      1.0000 0.22721  0.71748  0.07563  Biso   1.000  H
  H50      1.0000 0.22757  0.71748  0.57587  Biso   1.000  H
  H51      1.0000 0.24062  0.51520  0.00378  Biso   1.000  H
  H52      1.0000 0.24091  0.51541  0.50362  Biso   1.000  H
  H53      1.0000 0.99497  0.64479  0.46062  Biso   1.000  H
  H54      1.0000 0.99487  0.64460  0.96032  Biso   1.000  H
  H55      1.0000 0.99196  0.76323  0.44749  Biso   1.000  H
  H56      1.0000 0.99196  0.76317  0.94695  Biso   1.000  H
  H57      1.0000 0.96559  0.82251  0.50662  Biso   1.000  H
  H58      1.0000 0.96558  0.82254  0.00589  Biso   1.000  H
  H59      1.0000 0.95377  0.80063  0.10578  Biso   1.000  H
  H60      1.0000 0.95442  0.80045  0.60624  Biso   1.000  H
  H61      1.0000 0.71402  0.72754  0.21215  Biso   1.000  H
  H62      1.0000 0.71426  0.72815  0.71289  Biso   1.000  H
  H63      1.0000 0.74269  0.65994  0.03108  Biso   1.000  H
  H64      1.0000 0.74284  0.66000  0.53194  Biso   1.000  H
  C1       1.0000 0.39274  0.30865  0.26841  Biso   1.000  C
  C2       1.0000 0.39249  0.30859  0.76808  Biso   1.000  C
  C3       1.0000 0.30335  0.31957  0.29791  Biso   1.000  C
  C4       1.0000 0.30312  0.31945  0.79764  Biso   1.000  C
  C5       1.0000 0.25438  0.38155  0.29165  Biso   1.000  C
  C6       1.0000 0.25419  0.38146  0.79149  Biso   1.000  C
  C7       1.0000 0.29565  0.43350  0.25775  Biso   1.000  C
  C8       1.0000 0.29544  0.43347  0.75766  Biso   1.000  C
  C9       1.0000 0.38524  0.42221  0.22900  Biso   1.000  C
  C10      1.0000 0.38499  0.42222  0.72883  Biso   1.000  C
  C11      1.0000 0.43380  0.35952  0.23316  Biso   1.000  C
  C12      1.0000 0.43353  0.35952  0.73289  Biso   1.000  C
  C13      1.0000 0.15840  0.39295  0.32192  Biso   1.000  C
  C14      1.0000 0.15823  0.39281  0.82182  Biso   1.000  C
  C15      1.0000 0.42855  0.47807  0.19371  Biso   1.000  C
  C16      1.0000 0.42831  0.47811  0.69362  Biso   1.000  C
  C17      1.0000 0.51976  0.22804  0.24438  Biso   1.000  C
  C18      1.0000 0.51955  0.22813  0.74393  Biso   1.000  C
  C19      1.0000 0.64717  0.26600  0.31123  Biso   1.000  C
  C20      1.0000 0.64695  0.26590  0.81087  Biso   1.000  C
  C21      1.0000 0.61202  0.22767  0.35867  Biso   1.000  C
  C22      1.0000 0.61177  0.22746  0.85825  Biso   1.000  C
  C23      1.0000 0.66228  0.22993  0.41300  Biso   1.000  C
  C24      1.0000 0.66211  0.22959  0.91255  Biso   1.000  C
  C25      1.0000 0.74748  0.26897  0.41982  Biso   1.000  C
  C26      1.0000 0.74742  0.26852  0.91941  Biso   1.000  C
  C27      1.0000 0.78112  0.30775  0.37205  Biso   1.000  C
  C28      1.0000 0.78101  0.30746  0.87173  Biso   1.000  C
  C29      1.0000 0.73082  0.30673  0.31792  Biso   1.000  C
  C30      1.0000 0.73066  0.30660  0.81762  Biso   1.000  C
  C31      1.0000 0.62131  0.19191  0.46443  Biso   1.000  C
  C32      1.0000 0.62109  0.19160  0.96395  Biso   1.000  C
  C33      1.0000 0.86935  0.35167  0.37942  Biso   1.000  C
  C34      1.0000 0.86923  0.35138  0.87915  Biso   1.000  C
  C35      1.0000 0.60774  0.80826  0.48057  Biso   1.000  C
  C36      1.0000 0.60705  0.80804  0.98063  Biso   1.000  C
  C37      1.0000 0.69712  0.81918  0.45112  Biso   1.000  C
  C38      1.0000 0.69626  0.81859  0.95089  Biso   1.000  C
  C39      1.0000 0.74564  0.88123  0.45732  Biso   1.000  C
  C40      1.0000 0.74503  0.88058  0.95639  Biso   1.000  C
  C41      1.0000 0.70387  0.93326  0.49100  Biso   1.000  C
  C42      1.0000 0.70387  0.93275  0.99017  Biso   1.000  C
  C43      1.0000 0.61453  0.92175  0.01937  Biso   1.000  C
  C44      1.0000 0.61427  0.92198  0.51967  Biso   1.000  C
  C45      1.0000 0.56598  0.85910  0.01570  Biso   1.000  C
  C46      1.0000 0.56620  0.85921  0.51565  Biso   1.000  C
  C47      1.0000 0.84182  0.89258  0.42729  Biso   1.000  C
  C48      1.0000 0.84106  0.89169  0.92507  Biso   1.000  C
  C49      1.0000 0.57121  0.97772  0.05462  Biso   1.000  C
  C50      1.0000 0.57049  0.97797  0.55476  Biso   1.000  C
  C51      1.0000 0.48039  0.72768  0.00507  Biso   1.000  C
  C52      1.0000 0.48179  0.72734  0.50514  Biso   1.000  C
  C53      1.0000 0.35335  0.76509  0.43877  Biso   1.000  C
  C54      1.0000 0.35209  0.76517  0.93829  Biso   1.000  C
  C55      1.0000 0.38806  0.72657  0.39127  Biso   1.000  C
  C56      1.0000 0.38774  0.72653  0.89101  Biso   1.000  C
  C57      1.0000 0.33762  0.72911  0.33701  Biso   1.000  C
  C58      1.0000 0.33765  0.72887  0.83674  Biso   1.000  C
  C59      1.0000 0.25266  0.76857  0.33034  Biso   1.000  C
  C60      1.0000 0.25214  0.76797  0.82987  Biso   1.000  C
  C61      1.0000 0.21933  0.80741  0.37820  Biso   1.000  C
  C62      1.0000 0.21760  0.80681  0.87745  Biso   1.000  C
  C63      1.0000 0.26984  0.80617  0.43226  Biso   1.000  C
  C64      1.0000 0.26785  0.80588  0.93149  Biso   1.000  C
  C65      1.0000 0.37823  0.69102  0.28545  Biso   1.000  C
  C66      1.0000 0.37856  0.69087  0.78531  Biso   1.000  C
  C67      1.0000 0.13123  0.85164  0.37084  Biso   1.000  C
  C68      1.0000 0.12743  0.85022  0.86994  Biso   1.000  C
  C69      1.0000 0.89273  0.18820  0.23076  Biso   1.000  C
  C70      1.0000 0.89230  0.18715  0.73092  Biso   1.000  C
  C71      1.0000 0.80340  0.17722  0.20101  Biso   1.000  C
  C72      1.0000 0.80281  0.17695  0.70118  Biso   1.000  C
  C73      1.0000 0.75464  0.11529  0.20729  Biso   1.000  C
  C74      1.0000 0.75363  0.11518  0.70727  Biso   1.000  C
  C75      1.0000 0.79607  0.06348  0.24147  Biso   1.000  C
  C76      1.0000 0.79483  0.06298  0.74113  Biso   1.000  C
  C77      1.0000 0.88556  0.07485  0.27054  Biso   1.000  C
  C78      1.0000 0.88466  0.07335  0.77004  Biso   1.000  C
  C79      1.0000 0.93394  0.13749  0.26633  Biso   1.000  C
  C80      1.0000 0.93339  0.13588  0.76611  Biso   1.000  C
  C81      1.0000 0.65869  0.10384  0.17671  Biso   1.000  C
  C82      1.0000 0.65779  0.10396  0.67676  Biso   1.000  C
  C83      1.0000 0.92899  0.01909  0.30610  Biso   1.000  C
  C84      1.0000 0.92824  0.01586  0.80454  Biso   1.000  C
  C85      1.0000 0.01957  0.26871  0.25490  Biso   1.000  C
  C86      1.0000 0.01906  0.26801  0.75516  Biso   1.000  C
  C87      1.0000 0.14722  0.23112  0.18829  Biso   1.000  C
  C88      1.0000 0.14690  0.23107  0.68844  Biso   1.000  C
  C89      1.0000 0.11213  0.27002  0.14102  Biso   1.000  C
  C90      1.0000 0.11187  0.27006  0.64117  Biso   1.000  C
  C91      1.0000 0.16235  0.26800  0.08684  Biso   1.000  C
  C92      1.0000 0.16214  0.26811  0.58698  Biso   1.000  C
  C93      1.0000 0.24739  0.22866  0.08000  Biso   1.000  C
  C94      1.0000 0.24716  0.22878  0.58013  Biso   1.000  C
  C95      1.0000 0.28106  0.18941  0.12761  Biso   1.000  C
  C96      1.0000 0.28070  0.18942  0.62769  Biso   1.000  C
  C97      1.0000 0.23083  0.19016  0.18160  Biso   1.000  C
  C98      1.0000 0.23046  0.19008  0.68167  Biso   1.000  C
  C99      1.0000 0.12152  0.30637  0.03546  Biso   1.000  C
  C100     1.0000 0.12148  0.30654  0.53555  Biso   1.000  C
  C101     1.0000 0.36930  0.14537  0.12004  Biso   1.000  C
  C102     1.0000 0.36863  0.14516  0.62005  Biso   1.000  C
  C103     1.0000 0.10609  0.68856  0.01859  Biso   1.000  C
  C104     1.0000 0.10635  0.68863  0.51887  Biso   1.000  C
  C105     1.0000 0.19572  0.67764  0.04811  Biso   1.000  C
  C106     1.0000 0.19603  0.67772  0.54831  Biso   1.000  C
  C107     1.0000 0.24481  0.61575  0.04172  Biso   1.000  C
  C108     1.0000 0.24515  0.61586  0.54174  Biso   1.000  C
  C109     1.0000 0.20349  0.56385  0.00766  Biso   1.000  C
  C110     1.0000 0.20378  0.56405  0.50761  Biso   1.000  C
  C111     1.0000 0.11391  0.57535  0.47888  Biso   1.000  C
  C112     1.0000 0.11369  0.57512  0.97885  Biso   1.000  C
  C113     1.0000 0.06515  0.63792  0.48336  Biso   1.000  C
  C114     1.0000 0.06496  0.63773  0.98315  Biso   1.000  C
  C115     1.0000 0.34099  0.60439  0.07205  Biso   1.000  C
  C116     1.0000 0.34141  0.60448  0.57198  Biso   1.000  C
  C117     1.0000 0.07065  0.51956  0.44333  Biso   1.000  C
  C118     1.0000 0.07044  0.51928  0.94338  Biso   1.000  C
  C119     1.0000 0.97908  0.76921  0.49515  Biso   1.000  C
  C120     1.0000 0.97899  0.76921  0.99458  Biso   1.000  C
  C121     1.0000 0.85182  0.73150  0.06134  Biso   1.000  C
  C122     1.0000 0.85213  0.73153  0.56196  Biso   1.000  C
  C123     1.0000 0.88705  0.77013  0.10875  Biso   1.000  C
  C124     1.0000 0.88754  0.77013  0.60926  Biso   1.000  C
  C125     1.0000 0.83707  0.76791  0.16300  Biso   1.000  C
  C126     1.0000 0.83766  0.76823  0.66357  Biso   1.000  C
  C127     1.0000 0.75199  0.72878  0.16981  Biso   1.000  C
  C128     1.0000 0.75250  0.72922  0.67060  Biso   1.000  C
  C129     1.0000 0.71822  0.68977  0.12211  Biso   1.000  C
  C130     1.0000 0.71872  0.68999  0.62296  Biso   1.000  C
  C131     1.0000 0.76828  0.69064  0.06806  Biso   1.000  C
  C132     1.0000 0.76862  0.69075  0.56885  Biso   1.000  C
  C133     1.0000 0.87817  0.80584  0.21455  Biso   1.000  C
  C134     1.0000 0.87983  0.80666  0.71453  Biso   1.000  C
  C135     1.0000 0.63019  0.64573  0.12956  Biso   1.000  C
  C136     1.0000 0.63056  0.64593  0.63022  Biso   1.000  C
  O1       1.0000 0.12801  0.35005  0.35947  Biso   1.000  O
  O2       1.0000 0.12797  0.34988  0.85936  Biso   1.000  O
  O3       1.0000 0.10997  0.44692  0.30710  Biso   1.000  O
  O4       1.0000 0.10975  0.44677  0.80703  Biso   1.000  O
  O5       1.0000 0.39204  0.53712  0.19934  Biso   1.000  O
  O6       1.0000 0.39162  0.53713  0.69921  Biso   1.000  O
  O7       1.0000 0.49962  0.46406  0.15760  Biso   1.000  O
  O8       1.0000 0.49962  0.46425  0.65763  Biso   1.000  O
  O9       1.0000 0.43507  0.24618  0.27773  Biso   1.000  O
  O10      1.0000 0.43483  0.24611  0.77729  Biso   1.000  O
  O11      1.0000 0.60387  0.26854  0.25601  Biso   1.000  O
  O12      1.0000 0.60361  0.26866  0.75570  Biso   1.000  O
  O13      1.0000 0.54816  0.15237  0.45825  Biso   1.000  O
  O14      1.0000 0.54814  0.15191  0.95779  Biso   1.000  O
  O15      1.0000 0.66132  0.20082  0.51584  Biso   1.000  O
  O16      1.0000 0.66078  0.20065  0.01544  Biso   1.000  O
  O17      1.0000 0.92671  0.34135  0.42303  Biso   1.000  O
  O18      1.0000 0.92654  0.34105  0.92277  Biso   1.000  O
  O19      1.0000 0.88141  0.39891  0.34037  Biso   1.000  O
  O20      1.0000 0.88128  0.39868  0.84015  Biso   1.000  O
  O21      1.0000 0.87283  0.84953  0.39001  Biso   1.000  O
  O22      1.0000 0.86936  0.84625  0.88901  Biso   1.000  O
  O23      1.0000 0.88979  0.94664  0.44214  Biso   1.000  O
  O24      1.0000 0.88748  0.94615  0.93779  Biso   1.000  O
  O25      1.0000 0.60697  0.03687  0.04861  Biso   1.000  O
  O26      1.0000 0.60647  0.03702  0.54877  Biso   1.000  O
  O27      1.0000 0.50069  0.96368  0.09110  Biso   1.000  O
  O28      1.0000 0.49963  0.96393  0.59095  Biso   1.000  O
  O29      1.0000 0.56584  0.74567  0.47140  Biso   1.000  O
  O30      1.0000 0.56448  0.74554  0.97147  Biso   1.000  O
  O31      1.0000 0.39545  0.76797  0.99332  Biso   1.000  O
  O32      1.0000 0.39701  0.76748  0.49391  Biso   1.000  O
  O33      1.0000 0.45079  0.65086  0.29147  Biso   1.000  O
  O34      1.0000 0.45079  0.65041  0.79135  Biso   1.000  O
  O35      1.0000 0.33837  0.70069  0.23405  Biso   1.000  O
  O36      1.0000 0.33921  0.70076  0.73378  Biso   1.000  O
  O37      1.0000 0.07422  0.84171  0.32703  Biso   1.000  O
  O38      1.0000 0.07315  0.83842  0.82505  Biso   1.000  O
  O39      1.0000 0.11886  0.89874  0.41004  Biso   1.000  O
  O40      1.0000 0.11264  0.89549  0.90936  Biso   1.000  O
  O41      1.0000 0.62797  0.14691  0.13926  Biso   1.000  O
  O42      1.0000 0.62668  0.14721  0.63951  Biso   1.000  O
  O43      1.0000 0.61069  0.04976  0.19122  Biso   1.000  O
  O44      1.0000 0.60993  0.04968  0.69098  Biso   1.000  O
  O45      1.0000 0.89265  0.96004  0.30049  Biso   1.000  O
  O46      1.0000 0.88909  0.95806  0.79657  Biso   1.000  O
  O47      1.0000 0.99998  0.03311  0.34245  Biso   1.000  O
  O48      1.0000 0.00036  0.02874  0.83949  Biso   1.000  O
  O49      1.0000 0.93494  0.25064  0.22139  Biso   1.000  O
  O50      1.0000 0.93476  0.24965  0.72161  Biso   1.000  O
  O51      1.0000 0.10392  0.22827  0.24336  Biso   1.000  O
  O52      1.0000 0.10384  0.22800  0.74348  Biso   1.000  O
  O53      1.0000 0.04883  0.34639  0.04142  Biso   1.000  O
  O54      1.0000 0.04933  0.34697  0.54153  Biso   1.000  O
  O55      1.0000 0.16139  0.29724  0.98409  Biso   1.000  O
  O56      1.0000 0.16100  0.29684  0.48413  Biso   1.000  O
  O57      1.0000 0.42622  0.15595  0.07648  Biso   1.000  O
  O58      1.0000 0.42542  0.15538  0.57636  Biso   1.000  O
  O59      1.0000 0.38190  0.09795  0.15892  Biso   1.000  O
  O60      1.0000 0.38088  0.09772  0.65893  Biso   1.000  O
  O61      1.0000 0.37171  0.64737  0.10955  Biso   1.000  O
  O62      1.0000 0.37214  0.64745  0.60948  Biso   1.000  O
  O63      1.0000 0.38932  0.55038  0.05731  Biso   1.000  O
  O64      1.0000 0.38973  0.55049  0.55722  Biso   1.000  O
  O65      1.0000 0.10734  0.46053  0.44892  Biso   1.000  O
  O66      1.0000 0.10706  0.46023  0.94902  Biso   1.000  O
  O67      1.0000 0.99953  0.53354  0.40705  Biso   1.000  O
  O68      1.0000 0.99933  0.53323  0.90707  Biso   1.000  O
  O69      1.0000 0.06370  0.75090  0.02810  Biso   1.000  O
  O70      1.0000 0.06389  0.75100  0.52852  Biso   1.000  O
  O71      1.0000 0.89494  0.72876  0.50680  Biso   1.000  O
  O72      1.0000 0.89485  0.72870  0.00629  Biso   1.000  O
  O73      1.0000 0.95087  0.84574  0.20863  Biso   1.000  O
  O74      1.0000 0.95216  0.84654  0.70762  Biso   1.000  O
  O75      1.0000 0.83871  0.79637  0.26595  Biso   1.000  O
  O76      1.0000 0.84269  0.79830  0.76655  Biso   1.000  O
  O77      1.0000 0.57312  0.65610  0.17313  Biso   1.000  O
  O78      1.0000 0.57340  0.65623  0.67372  Biso   1.000  O
  O79      1.0000 0.61802  0.59830  0.09064  Biso   1.000  O
  O80      1.0000 0.61841  0.59868  0.59113  Biso   1.000  O
  O81      1.0000 0.07540  0.03262  0.97034  Biso   1.000  O
  H65      1.0000 0.10361  0.06352  0.00109  Biso   1.000  H
