data_image0
_cell_length_a       8.578
_cell_length_b       13.866
_cell_length_c       21.033
_cell_angle_alpha    109.128
_cell_angle_beta     92.71
_cell_angle_gamma    89.975

_symmetry_space_group_name_H-M    "P 1"
_symmetry_int_tables_number       1

loop_
  _symmetry_equiv_pos_as_xyz
  'x, y, z'

loop_
  _atom_site_label
  _atom_site_occupancy
  _atom_site_fract_x
  _atom_site_fract_y
  _atom_site_fract_z
  _atom_site_thermal_displace_type
  _atom_site_B_iso_or_equiv
  _atom_site_type_symbol
  Cu1      1.0000 0.25032  0.00030  0.25005  Biso   1.000  Cu
  Cu2      1.0000 0.25007  0.00132  0.75011  Biso   1.000  Cu
  Cu3      1.0000 0.25038  0.50032  0.25005  Biso   1.000  Cu
  Cu4      1.0000 0.24999  0.50135  0.75010  Biso   1.000  Cu
  Cu5      1.0000 0.75028  0.00030  0.25005  Biso   1.000  Cu
  Cu6      1.0000 0.75006  0.00133  0.75011  Biso   1.000  Cu
  Cu7      1.0000 0.75035  0.50033  0.25006  Biso   1.000  Cu
  Cu8      1.0000 0.74999  0.50135  0.75010  Biso   1.000  Cu
  Cu9      1.0000 0.25047  0.25029  0.25005  Biso   1.000  Cu
  Cu10     1.0000 0.25026  0.25121  0.74999  Biso   1.000  Cu
  Cu11     1.0000 0.25037  0.75023  0.25001  Biso   1.000  Cu
  Cu12     1.0000 0.25021  0.75119  0.74997  Biso   1.000  Cu
  Cu13     1.0000 0.75045  0.25029  0.25004  Biso   1.000  Cu
  Cu14     1.0000 0.75024  0.25121  0.75000  Biso   1.000  Cu
  Cu15     1.0000 0.75033  0.75024  0.25001  Biso   1.000  Cu
  Cu16     1.0000 0.75023  0.75119  0.74997  Biso   1.000  Cu
  P1       1.0000 0.49180  0.08891  0.17674  Biso   1.000  P
  P2       1.0000 0.49168  0.08976  0.67674  Biso   1.000  P
  P3       1.0000 0.49180  0.58882  0.17672  Biso   1.000  P
  P4       1.0000 0.49160  0.58976  0.67673  Biso   1.000  P
  P5       1.0000 0.99178  0.08890  0.17675  Biso   1.000  P
  P6       1.0000 0.99165  0.08977  0.67675  Biso   1.000  P
  P7       1.0000 0.99179  0.58884  0.17673  Biso   1.000  P
  P8       1.0000 0.99159  0.58976  0.67672  Biso   1.000  P
  P9       1.0000 0.00880  0.41171  0.32330  Biso   1.000  P
  P10      1.0000 0.00854  0.41273  0.82332  Biso   1.000  P
  P11      1.0000 0.00871  0.91164  0.32329  Biso   1.000  P
  P12      1.0000 0.00856  0.91269  0.82330  Biso   1.000  P
  P13      1.0000 0.50880  0.41173  0.32330  Biso   1.000  P
  P14      1.0000 0.50851  0.41272  0.82331  Biso   1.000  P
  P15      1.0000 0.50868  0.91165  0.32330  Biso   1.000  P
  P16      1.0000 0.50855  0.91269  0.82331  Biso   1.000  P
  H1       1.0000 0.15159  0.48405  0.09456  Biso   1.000  H
  H2       1.0000 0.15184  0.48506  0.59472  Biso   1.000  H
  H3       1.0000 0.15176  0.98432  0.09454  Biso   1.000  H
  H4       1.0000 0.15191  0.98512  0.59476  Biso   1.000  H
  H5       1.0000 0.65153  0.48400  0.09455  Biso   1.000  H
  H6       1.0000 0.65182  0.48506  0.59474  Biso   1.000  H
  H7       1.0000 0.65176  0.98437  0.09453  Biso   1.000  H
  H8       1.0000 0.65196  0.98515  0.59478  Biso   1.000  H
  H9       1.0000 0.38286  0.45476  0.03572  Biso   1.000  H
  H10      1.0000 0.38315  0.45490  0.53589  Biso   1.000  H
  H11      1.0000 0.38290  0.95487  0.03575  Biso   1.000  H
  H12      1.0000 0.38323  0.95493  0.53596  Biso   1.000  H
  H13      1.0000 0.88285  0.45476  0.03574  Biso   1.000  H
  H14      1.0000 0.88311  0.45490  0.53588  Biso   1.000  H
  H15      1.0000 0.88287  0.95488  0.03577  Biso   1.000  H
  H16      1.0000 0.88315  0.95495  0.53595  Biso   1.000  H
  H17      1.0000 0.34877  0.38942  0.40570  Biso   1.000  H
  H18      1.0000 0.34839  0.39006  0.90553  Biso   1.000  H
  H19      1.0000 0.34884  0.88928  0.40573  Biso   1.000  H
  H20      1.0000 0.34845  0.89002  0.90554  Biso   1.000  H
  H21      1.0000 0.84872  0.38939  0.40567  Biso   1.000  H
  H22      1.0000 0.84835  0.39011  0.90555  Biso   1.000  H
  H23      1.0000 0.84879  0.88928  0.40572  Biso   1.000  H
  H24      1.0000 0.84844  0.89002  0.90554  Biso   1.000  H
  H25      1.0000 0.11736  0.41897  0.46466  Biso   1.000  H
  H26      1.0000 0.11699  0.41885  0.96445  Biso   1.000  H
  H27      1.0000 0.11739  0.91896  0.46471  Biso   1.000  H
  H28      1.0000 0.11698  0.91891  0.96447  Biso   1.000  H
  H29      1.0000 0.61738  0.41899  0.46468  Biso   1.000  H
  H30      1.0000 0.61699  0.41883  0.96442  Biso   1.000  H
  H31      1.0000 0.61743  0.91897  0.46469  Biso   1.000  H
  H32      1.0000 0.61702  0.91893  0.96447  Biso   1.000  H
  H33      1.0000 0.34832  0.01596  0.40541  Biso   1.000  H
  H34      1.0000 0.34844  0.01689  0.90559  Biso   1.000  H
  H35      1.0000 0.34846  0.51614  0.40539  Biso   1.000  H
  H36      1.0000 0.34846  0.51699  0.90563  Biso   1.000  H
  H37      1.0000 0.84832  0.01595  0.40540  Biso   1.000  H
  H38      1.0000 0.84840  0.01689  0.90560  Biso   1.000  H
  H39      1.0000 0.84841  0.51611  0.40536  Biso   1.000  H
  H40      1.0000 0.84850  0.51702  0.90563  Biso   1.000  H
  H41      1.0000 0.11722  0.04593  0.46417  Biso   1.000  H
  H42      1.0000 0.11746  0.04607  0.96434  Biso   1.000  H
  H43      1.0000 0.11724  0.54600  0.46417  Biso   1.000  H
  H44      1.0000 0.11749  0.54609  0.96438  Biso   1.000  H
  H45      1.0000 0.61723  0.04596  0.46416  Biso   1.000  H
  H46      1.0000 0.61744  0.04610  0.96432  Biso   1.000  H
  H47      1.0000 0.61725  0.54602  0.46420  Biso   1.000  H
  H48      1.0000 0.61747  0.54607  0.96435  Biso   1.000  H
  H49      1.0000 0.15185  0.11106  0.09433  Biso   1.000  H
  H50      1.0000 0.15160  0.11168  0.59420  Biso   1.000  H
  H51      1.0000 0.15205  0.61081  0.09431  Biso   1.000  H
  H52      1.0000 0.15155  0.61166  0.59417  Biso   1.000  H
  H53      1.0000 0.65179  0.11109  0.09432  Biso   1.000  H
  H54      1.0000 0.65161  0.11171  0.59422  Biso   1.000  H
  H55      1.0000 0.65209  0.61075  0.09430  Biso   1.000  H
  H56      1.0000 0.65155  0.61166  0.59419  Biso   1.000  H
  H57      1.0000 0.38302  0.08197  0.03549  Biso   1.000  H
  H58      1.0000 0.38281  0.08187  0.53534  Biso   1.000  H
  H59      1.0000 0.38313  0.58195  0.03554  Biso   1.000  H
  H60      1.0000 0.38273  0.58188  0.53531  Biso   1.000  H
  H61      1.0000 0.88304  0.08198  0.03552  Biso   1.000  H
  H62      1.0000 0.88275  0.08187  0.53532  Biso   1.000  H
  H63      1.0000 0.88307  0.58195  0.03556  Biso   1.000  H
  H64      1.0000 0.88271  0.58189  0.53529  Biso   1.000  H
  C1       1.0000 0.07477  0.04791  0.09482  Biso   1.000  C
  C2       1.0000 0.07470  0.04853  0.59484  Biso   1.000  C
  C3       1.0000 0.07478  0.54776  0.09481  Biso   1.000  C
  C4       1.0000 0.07465  0.54851  0.59480  Biso   1.000  C
  C5       1.0000 0.57473  0.04794  0.09481  Biso   1.000  C
  C6       1.0000 0.57473  0.04853  0.59483  Biso   1.000  C
  C7       1.0000 0.57476  0.54772  0.09479  Biso   1.000  C
  C8       1.0000 0.57464  0.54851  0.59482  Biso   1.000  C
  C9       1.0000 0.45914  0.01728  0.03351  Biso   1.000  C
  C10      1.0000 0.45917  0.01737  0.53353  Biso   1.000  C
  C11      1.0000 0.45916  0.51720  0.03351  Biso   1.000  C
  C12      1.0000 0.45911  0.51739  0.53351  Biso   1.000  C
  C13      1.0000 0.95914  0.01729  0.03352  Biso   1.000  C
  C14      1.0000 0.95912  0.01737  0.53353  Biso   1.000  C
  C15      1.0000 0.95912  0.51721  0.03353  Biso   1.000  C
  C16      1.0000 0.95908  0.51739  0.53349  Biso   1.000  C
  C17      1.0000 0.42567  0.45265  0.40519  Biso   1.000  C
  C18      1.0000 0.42547  0.45331  0.90522  Biso   1.000  C
  C19      1.0000 0.42563  0.95256  0.40523  Biso   1.000  C
  C20      1.0000 0.42549  0.95329  0.90521  Biso   1.000  C
  C21      1.0000 0.92562  0.45263  0.40519  Biso   1.000  C
  C22      1.0000 0.92548  0.45333  0.90524  Biso   1.000  C
  C23      1.0000 0.92561  0.95254  0.40521  Biso   1.000  C
  C24      1.0000 0.92547  0.95329  0.90521  Biso   1.000  C
  C25      1.0000 0.04113  0.48355  0.46651  Biso   1.000  C
  C26      1.0000 0.04107  0.48366  0.96654  Biso   1.000  C
  C27      1.0000 0.04113  0.98352  0.46654  Biso   1.000  C
  C28      1.0000 0.04104  0.98370  0.96652  Biso   1.000  C
  C29      1.0000 0.54113  0.48357  0.46653  Biso   1.000  C
  C30      1.0000 0.54107  0.48365  0.96651  Biso   1.000  C
  C31      1.0000 0.54118  0.98354  0.46654  Biso   1.000  C
  C32      1.0000 0.54107  0.98371  0.96651  Biso   1.000  C
  O1       1.0000 0.39982  0.49777  0.18338  Biso   1.000  O
  O2       1.0000 0.39955  0.49880  0.68345  Biso   1.000  O
  O3       1.0000 0.39980  0.99789  0.18338  Biso   1.000  O
  O4       1.0000 0.39962  0.99884  0.68346  Biso   1.000  O
  O5       1.0000 0.89980  0.49779  0.18338  Biso   1.000  O
  O6       1.0000 0.89954  0.49880  0.68344  Biso   1.000  O
  O7       1.0000 0.89978  0.99788  0.18339  Biso   1.000  O
  O8       1.0000 0.89959  0.99884  0.68346  Biso   1.000  O
  O9       1.0000 0.10074  0.31400  0.31672  Biso   1.000  O
  O10      1.0000 0.10065  0.31508  0.81668  Biso   1.000  O
  O11      1.0000 0.10063  0.81391  0.31670  Biso   1.000  O
  O12      1.0000 0.10065  0.81504  0.81668  Biso   1.000  O
  O13      1.0000 0.60075  0.31402  0.31673  Biso   1.000  O
  O14      1.0000 0.60062  0.31507  0.81667  Biso   1.000  O
  O15      1.0000 0.60061  0.81393  0.31670  Biso   1.000  O
  O16      1.0000 0.60065  0.81503  0.81667  Biso   1.000  O
  O17      1.0000 0.10059  0.00272  0.31667  Biso   1.000  O
  O18      1.0000 0.10031  0.00387  0.81673  Biso   1.000  O
  O19      1.0000 0.10064  0.50284  0.31667  Biso   1.000  O
  O20      1.0000 0.10028  0.50393  0.81674  Biso   1.000  O
  O21      1.0000 0.60056  0.00273  0.31666  Biso   1.000  O
  O22      1.0000 0.60031  0.00385  0.81673  Biso   1.000  O
  O23      1.0000 0.60062  0.50287  0.31668  Biso   1.000  O
  O24      1.0000 0.60026  0.50392  0.81673  Biso   1.000  O
  O25      1.0000 0.39990  0.18664  0.18329  Biso   1.000  O
  O26      1.0000 0.39977  0.18747  0.68326  Biso   1.000  O
  O27      1.0000 0.39987  0.68654  0.18326  Biso   1.000  O
  O28      1.0000 0.39972  0.68747  0.68324  Biso   1.000  O
  O29      1.0000 0.89988  0.18663  0.18329  Biso   1.000  O
  O30      1.0000 0.89977  0.18748  0.68327  Biso   1.000  O
  O31      1.0000 0.89987  0.68656  0.18327  Biso   1.000  O
  O32      1.0000 0.89972  0.68747  0.68323  Biso   1.000  O
  O33      1.0000 0.13587  0.11566  0.23055  Biso   1.000  O
  O34      1.0000 0.13571  0.11660  0.73057  Biso   1.000  O
  O35      1.0000 0.13588  0.61563  0.23053  Biso   1.000  O
  O36      1.0000 0.13561  0.61661  0.73054  Biso   1.000  O
  O37      1.0000 0.63587  0.11567  0.23055  Biso   1.000  O
  O38      1.0000 0.63565  0.11662  0.73058  Biso   1.000  O
  O39      1.0000 0.63585  0.61564  0.23053  Biso   1.000  O
  O40      1.0000 0.63561  0.61661  0.73055  Biso   1.000  O
  O41      1.0000 0.36476  0.38492  0.26949  Biso   1.000  O
  O42      1.0000 0.36445  0.38596  0.76951  Biso   1.000  O
  O43      1.0000 0.36467  0.88489  0.26947  Biso   1.000  O
  O44      1.0000 0.36449  0.88594  0.76951  Biso   1.000  O
  O45      1.0000 0.86476  0.38491  0.26948  Biso   1.000  O
  O46      1.0000 0.86444  0.38597  0.76952  Biso   1.000  O
  O47      1.0000 0.86465  0.88489  0.26948  Biso   1.000  O
  O48      1.0000 0.86447  0.88594  0.76951  Biso   1.000  O
  O49      1.0000 0.38538  0.72011  0.82070  Biso   1.000  O
