data_image0
_cell_length_a       17.739
_cell_length_b       17.719
_cell_length_c       17.713
_cell_angle_alpha    96.741
_cell_angle_beta     96.796
_cell_angle_gamma    96.639

_symmetry_space_group_name_H-M    "P 1"
_symmetry_int_tables_number       1

loop_
  _symmetry_equiv_pos_as_xyz
  'x, y, z'

loop_
  _atom_site_label
  _atom_site_occupancy
  _atom_site_fract_x
  _atom_site_fract_y
  _atom_site_fract_z
  _atom_site_thermal_displace_type
  _atom_site_B_iso_or_equiv
  _atom_site_type_symbol
  Cu1      1.0000 0.30527  0.90409  0.90379  Biso   1.000  Cu
  Cu2      1.0000 0.90483  0.30495  0.90385  Biso   1.000  Cu
  Cu3      1.0000 0.90454  0.90442  0.30436  Biso   1.000  Cu
  Cu4      1.0000 0.85582  0.17115  0.85431  Biso   1.000  Cu
  Cu5      1.0000 0.85520  0.85496  0.17046  Biso   1.000  Cu
  Cu6      1.0000 0.17183  0.85466  0.85381  Biso   1.000  Cu
  H1       1.0000 0.21166  0.47817  0.81861  Biso   1.000  H
  H2       1.0000 0.18088  0.61114  0.81812  Biso   1.000  H
  H3       1.0000 0.43180  0.56535  0.94887  Biso   1.000  H
  H4       1.0000 0.40205  0.69821  0.94347  Biso   1.000  H
  H5       1.0000 0.22538  0.38695  0.89151  Biso   1.000  H
  H6       1.0000 0.14270  0.30546  0.89157  Biso   1.000  H
  H7       1.0000 0.81958  0.21079  0.47749  Biso   1.000  H
  H8       1.0000 0.81877  0.18000  0.61047  Biso   1.000  H
  H9       1.0000 0.94944  0.43095  0.56536  Biso   1.000  H
  H10      1.0000 0.94377  0.40119  0.69820  Biso   1.000  H
  H11      1.0000 0.89323  0.22464  0.38656  Biso   1.000  H
  H12      1.0000 0.89341  0.14207  0.30490  Biso   1.000  H
  H13      1.0000 0.47877  0.82253  0.20761  Biso   1.000  H
  H14      1.0000 0.61159  0.82221  0.17702  Biso   1.000  H
  H15      1.0000 0.56594  0.94998  0.42940  Biso   1.000  H
  H16      1.0000 0.69867  0.94472  0.39977  Biso   1.000  H
  H17      1.0000 0.38675  0.89380  0.22308  Biso   1.000  H
  H18      1.0000 0.30465  0.89014  0.14049  Biso   1.000  H
  H19      1.0000 0.47926  0.20873  0.82170  Biso   1.000  H
  H20      1.0000 0.61216  0.17817  0.82107  Biso   1.000  H
  H21      1.0000 0.56634  0.43017  0.94958  Biso   1.000  H
  H22      1.0000 0.69909  0.40057  0.94404  Biso   1.000  H
  H23      1.0000 0.38758  0.22387  0.89342  Biso   1.000  H
  H24      1.0000 0.30556  0.14136  0.89102  Biso   1.000  H
  H25      1.0000 0.21211  0.81738  0.47765  Biso   1.000  H
  H26      1.0000 0.18166  0.81734  0.61072  Biso   1.000  H
  H27      1.0000 0.43167  0.94864  0.56459  Biso   1.000  H
  H28      1.0000 0.40230  0.94370  0.69758  Biso   1.000  H
  H29      1.0000 0.22487  0.89007  0.38609  Biso   1.000  H
  H30      1.0000 0.14206  0.89156  0.30451  Biso   1.000  H
  H31      1.0000 0.82158  0.47851  0.20919  Biso   1.000  H
  H32      1.0000 0.82041  0.61152  0.17865  Biso   1.000  H
  H33      1.0000 0.95003  0.56600  0.43042  Biso   1.000  H
  H34      1.0000 0.94407  0.69886  0.40081  Biso   1.000  H
  H35      1.0000 0.89486  0.38731  0.22393  Biso   1.000  H
  H36      1.0000 0.89334  0.30534  0.14123  Biso   1.000  H
  H37      1.0000 0.46202  0.46009  0.87929  Biso   1.000  H
  H38      1.0000 0.06517  0.06501  0.87046  Biso   1.000  H
  H39      1.0000 0.87953  0.46129  0.46020  Biso   1.000  H
  H40      1.0000 0.87305  0.06475  0.06424  Biso   1.000  H
  H41      1.0000 0.46208  0.87929  0.45931  Biso   1.000  H
  H42      1.0000 0.06426  0.87062  0.06381  Biso   1.000  H
  C1       1.0000 0.28950  0.66296  0.88075  Biso   1.000  C
  C2       1.0000 0.25314  0.52601  0.84761  Biso   1.000  C
  C3       1.0000 0.23582  0.60041  0.84633  Biso   1.000  C
  C4       1.0000 0.32393  0.51164  0.88422  Biso   1.000  C
  C5       1.0000 0.37721  0.57492  0.91874  Biso   1.000  C
  C6       1.0000 0.36061  0.64949  0.91664  Biso   1.000  C
  C7       1.0000 0.27109  0.74275  0.87958  Biso   1.000  C
  C8       1.0000 0.01713  0.20612  0.87995  Biso   1.000  C
  C9       1.0000 0.34164  0.43228  0.88666  Biso   1.000  C
  C10      1.0000 0.28313  0.37261  0.88935  Biso   1.000  C
  C11      1.0000 0.09741  0.18777  0.88169  Biso   1.000  C
  C12      1.0000 0.15769  0.24750  0.88819  Biso   1.000  C
  C13      1.0000 0.88123  0.28863  0.66259  Biso   1.000  C
  C14      1.0000 0.84838  0.25227  0.52550  Biso   1.000  C
  C15      1.0000 0.84698  0.23494  0.59988  Biso   1.000  C
  C16      1.0000 0.88504  0.32305  0.51138  Biso   1.000  C
  C17      1.0000 0.91930  0.37638  0.57481  Biso   1.000  C
  C18      1.0000 0.91708  0.35976  0.64934  Biso   1.000  C
  C19      1.0000 0.88005  0.27020  0.74235  Biso   1.000  C
  C20      1.0000 0.88193  0.01655  0.20540  Biso   1.000  C
  C21      1.0000 0.88762  0.34089  0.43212  Biso   1.000  C
  C22      1.0000 0.89085  0.28246  0.37236  Biso   1.000  C
  C23      1.0000 0.88395  0.09688  0.18713  Biso   1.000  C
  C24      1.0000 0.89029  0.15717  0.24700  Biso   1.000  C
  C25      1.0000 0.66341  0.88316  0.28659  Biso   1.000  C
  C26      1.0000 0.52658  0.85089  0.24955  Biso   1.000  C
  C27      1.0000 0.60091  0.84973  0.23230  Biso   1.000  C
  C28      1.0000 0.51228  0.88640  0.32087  Biso   1.000  C
  C29      1.0000 0.57550  0.92043  0.37451  Biso   1.000  C
  C30      1.0000 0.64997  0.91844  0.35799  Biso   1.000  C
  C31      1.0000 0.74317  0.88120  0.26874  Biso   1.000  C
  C32      1.0000 0.20524  0.87995  0.01522  Biso   1.000  C
  C33      1.0000 0.43309  0.88770  0.33904  Biso   1.000  C
  C34      1.0000 0.37292  0.89038  0.28087  Biso   1.000  C
  C35      1.0000 0.18704  0.88128  0.09559  Biso   1.000  C
  C36      1.0000 0.24695  0.88737  0.15580  Biso   1.000  C
  C37      1.0000 0.66389  0.28754  0.88228  Biso   1.000  C
  C38      1.0000 0.52707  0.25057  0.85011  Biso   1.000  C
  C39      1.0000 0.60142  0.23336  0.84876  Biso   1.000  C
  C40      1.0000 0.51272  0.32177  0.88588  Biso   1.000  C
  C41      1.0000 0.57592  0.37535  0.91990  Biso   1.000  C
  C42      1.0000 0.65041  0.35885  0.91774  Biso   1.000  C
  C43      1.0000 0.74366  0.26963  0.88043  Biso   1.000  C
  C44      1.0000 0.20604  0.01615  0.87988  Biso   1.000  C
  C45      1.0000 0.43350  0.33985  0.88760  Biso   1.000  C
  C46      1.0000 0.37356  0.28167  0.89038  Biso   1.000  C
  C47      1.0000 0.18792  0.09659  0.88152  Biso   1.000  C
  C48      1.0000 0.24781  0.15670  0.88797  Biso   1.000  C
  C49      1.0000 0.28999  0.88057  0.66248  Biso   1.000  C
  C50      1.0000 0.25354  0.84669  0.52546  Biso   1.000  C
  C51      1.0000 0.23641  0.84569  0.59993  Biso   1.000  C
  C52      1.0000 0.32404  0.88353  0.51097  Biso   1.000  C
  C53      1.0000 0.37728  0.91838  0.57424  Biso   1.000  C
  C54      1.0000 0.36088  0.91655  0.64890  Biso   1.000  C
  C55      1.0000 0.27160  0.87983  0.74232  Biso   1.000  C
  C56      1.0000 0.01645  0.88010  0.20511  Biso   1.000  C
  C57      1.0000 0.34145  0.88598  0.43152  Biso   1.000  C
  C58      1.0000 0.28267  0.88841  0.37181  Biso   1.000  C
  C59      1.0000 0.09665  0.88165  0.18670  Biso   1.000  C
  C60      1.0000 0.15698  0.88797  0.24654  Biso   1.000  C
  C61      1.0000 0.88203  0.66341  0.28786  Biso   1.000  C
  C62      1.0000 0.85000  0.52645  0.25096  Biso   1.000  C
  C63      1.0000 0.84836  0.60083  0.23376  Biso   1.000  C
  C64      1.0000 0.88620  0.51224  0.32205  Biso   1.000  C
  C65      1.0000 0.92014  0.57554  0.37566  Biso   1.000  C
  C66      1.0000 0.91773  0.65007  0.35916  Biso   1.000  C
  C67      1.0000 0.88024  0.74315  0.26970  Biso   1.000  C
  C68      1.0000 0.88218  0.20570  0.01585  Biso   1.000  C
  C69      1.0000 0.88838  0.43298  0.33998  Biso   1.000  C
  C70      1.0000 0.89172  0.37314  0.28167  Biso   1.000  C
  C71      1.0000 0.88401  0.18759  0.09624  Biso   1.000  C
  C72      1.0000 0.89031  0.24751  0.15646  Biso   1.000  C
  C73      1.0000 0.41669  0.41504  0.88532  Biso   1.000  C
  C74      1.0000 0.29750  0.29646  0.89040  Biso   1.000  C
  C75      1.0000 0.23410  0.23333  0.88957  Biso   1.000  C
  C76      1.0000 0.11199  0.11161  0.87674  Biso   1.000  C
  C77      1.0000 0.88598  0.41604  0.41508  Biso   1.000  C
  C78      1.0000 0.89209  0.29702  0.29629  Biso   1.000  C
  C79      1.0000 0.89170  0.23368  0.23304  Biso   1.000  C
  C80      1.0000 0.87926  0.11155  0.11102  Biso   1.000  C
  C81      1.0000 0.41652  0.88514  0.41426  Biso   1.000  C
  C82      1.0000 0.29686  0.88985  0.29565  Biso   1.000  C
  C83      1.0000 0.23334  0.88909  0.23246  Biso   1.000  C
  C84      1.0000 0.11112  0.87669  0.11051  Biso   1.000  C
  O1       1.0000 0.32597  0.79716  0.90271  Biso   1.000  O
  O2       1.0000 0.96333  0.15096  0.85669  Biso   1.000  O
  O3       1.0000 0.00893  0.27570  0.90223  Biso   1.000  O
  O4       1.0000 0.20185  0.75087  0.85571  Biso   1.000  O
  O5       1.0000 0.90323  0.32514  0.79684  Biso   1.000  O
  O6       1.0000 0.85947  0.96266  0.15004  Biso   1.000  O
  O7       1.0000 0.90306  0.00843  0.27529  Biso   1.000  O
  O8       1.0000 0.85637  0.20090  0.75037  Biso   1.000  O
  O9       1.0000 0.79736  0.90338  0.32416  Biso   1.000  O
  O10      1.0000 0.15016  0.85734  0.96107  Biso   1.000  O
  O11      1.0000 0.27488  0.90174  0.00730  Biso   1.000  O
  O12      1.0000 0.75145  0.85762  0.19941  Biso   1.000  O
  O13      1.0000 0.79776  0.32494  0.90301  Biso   1.000  O
  O14      1.0000 0.15097  0.96229  0.85654  Biso   1.000  O
  O15      1.0000 0.27558  0.00794  0.90215  Biso   1.000  O
  O16      1.0000 0.75210  0.20043  0.85653  Biso   1.000  O
  O17      1.0000 0.32637  0.90321  0.79690  Biso   1.000  O
  O18      1.0000 0.96252  0.85665  0.15001  Biso   1.000  O
  O19      1.0000 0.00847  0.90268  0.27469  Biso   1.000  O
  O20      1.0000 0.20237  0.85607  0.75028  Biso   1.000  O
  O21      1.0000 0.90342  0.79752  0.32475  Biso   1.000  O
  O22      1.0000 0.85962  0.15036  0.96193  Biso   1.000  O
  O23      1.0000 0.90342  0.27546  0.00768  Biso   1.000  O
  O24      1.0000 0.85600  0.75124  0.20046  Biso   1.000  O
  O25      1.0000 0.06325  0.81354  0.81200  Biso   1.000  O
