data_image0
_cell_length_a       14.647
_cell_length_b       20.817
_cell_length_c       16.596
_cell_angle_alpha    89.997
_cell_angle_beta     90.006
_cell_angle_gamma    90.004

_symmetry_space_group_name_H-M    "P 1"
_symmetry_int_tables_number       1

loop_
  _symmetry_equiv_pos_as_xyz
  'x, y, z'

loop_
  _atom_site_label
  _atom_site_occupancy
  _atom_site_fract_x
  _atom_site_fract_y
  _atom_site_fract_z
  _atom_site_thermal_displace_type
  _atom_site_B_iso_or_equiv
  _atom_site_type_symbol
  Ag1      1.0000 0.31523  0.03535  0.30129  Biso   1.000  Ag
  Ag2      1.0000 0.31524  0.53533  0.30130  Biso   1.000  Ag
  Ag3      1.0000 0.81522  0.03535  0.30129  Biso   1.000  Ag
  Ag4      1.0000 0.81524  0.53533  0.30130  Biso   1.000  Ag
  Ag5      1.0000 0.36942  0.13428  0.91529  Biso   1.000  Ag
  Ag6      1.0000 0.36945  0.63428  0.91528  Biso   1.000  Ag
  Ag7      1.0000 0.86941  0.13428  0.91529  Biso   1.000  Ag
  Ag8      1.0000 0.86944  0.63428  0.91528  Biso   1.000  Ag
  Ag9      1.0000 0.06524  0.28534  0.19872  Biso   1.000  Ag
  Ag10     1.0000 0.06523  0.78533  0.19872  Biso   1.000  Ag
  Ag11     1.0000 0.56523  0.28534  0.19872  Biso   1.000  Ag
  Ag12     1.0000 0.56522  0.78533  0.19872  Biso   1.000  Ag
  Ag13     1.0000 0.61940  0.38429  0.58475  Biso   1.000  Ag
  Ag14     1.0000 0.61938  0.88428  0.58475  Biso   1.000  Ag
  Ag15     1.0000 0.00000  0.38429  0.58475  Biso   1.000  Ag
  Ag16     1.0000 0.00000  0.88428  0.58475  Biso   1.000  Ag
  Ag17     1.0000 0.06522  0.46465  0.69873  Biso   1.000  Ag
  Ag18     1.0000 0.06521  0.96464  0.69873  Biso   1.000  Ag
  Ag19     1.0000 0.56521  0.46465  0.69873  Biso   1.000  Ag
  Ag20     1.0000 0.56520  0.96464  0.69873  Biso   1.000  Ag
  Ag21     1.0000 0.61938  0.36572  0.08473  Biso   1.000  Ag
  Ag22     1.0000 0.61935  0.86570  0.08472  Biso   1.000  Ag
  Ag23     1.0000 0.00000  0.36572  0.08473  Biso   1.000  Ag
  Ag24     1.0000 0.00000  0.86570  0.08472  Biso   1.000  Ag
  Ag25     1.0000 0.31523  0.21466  0.80131  Biso   1.000  Ag
  Ag26     1.0000 0.31521  0.71464  0.80130  Biso   1.000  Ag
  Ag27     1.0000 0.81521  0.21465  0.80131  Biso   1.000  Ag
  Ag28     1.0000 0.81520  0.71464  0.80130  Biso   1.000  Ag
  Ag29     1.0000 0.36944  0.11570  0.41527  Biso   1.000  Ag
  Ag30     1.0000 0.36941  0.61570  0.41529  Biso   1.000  Ag
  Ag31     1.0000 0.86943  0.11570  0.41527  Biso   1.000  Ag
  Ag32     1.0000 0.86940  0.61570  0.41529  Biso   1.000  Ag
  P1       1.0000 0.98922  0.05026  0.16211  Biso   1.000  P
  P2       1.0000 0.98922  0.55025  0.16211  Biso   1.000  P
  P3       1.0000 0.48921  0.05027  0.16211  Biso   1.000  P
  P4       1.0000 0.48921  0.55025  0.16211  Biso   1.000  P
  P5       1.0000 0.23923  0.30025  0.33791  Biso   1.000  P
  P6       1.0000 0.23922  0.80024  0.33790  Biso   1.000  P
  P7       1.0000 0.73922  0.30025  0.33791  Biso   1.000  P
  P8       1.0000 0.73921  0.80024  0.33791  Biso   1.000  P
  P9       1.0000 0.23923  0.44973  0.83792  Biso   1.000  P
  P10      1.0000 0.23922  0.94971  0.83792  Biso   1.000  P
  P11      1.0000 0.73922  0.44972  0.83792  Biso   1.000  P
  P12      1.0000 0.73920  0.94971  0.83792  Biso   1.000  P
  P13      1.0000 0.98921  0.19974  0.66213  Biso   1.000  P
  P14      1.0000 0.98921  0.69972  0.66212  Biso   1.000  P
  P15      1.0000 0.48920  0.19973  0.66213  Biso   1.000  P
  P16      1.0000 0.48920  0.69972  0.66212  Biso   1.000  P
  H1       1.0000 0.06254  0.02952  0.29109  Biso   1.000  H
  H2       1.0000 0.06254  0.52951  0.29109  Biso   1.000  H
  H3       1.0000 0.56253  0.02952  0.29109  Biso   1.000  H
  H4       1.0000 0.56253  0.52951  0.29110  Biso   1.000  H
  H5       1.0000 0.09944  0.47397  0.21520  Biso   1.000  H
  H6       1.0000 0.09945  0.97396  0.21519  Biso   1.000  H
  H7       1.0000 0.59944  0.47397  0.21520  Biso   1.000  H
  H8       1.0000 0.59944  0.97396  0.21519  Biso   1.000  H
  H9       1.0000 0.44182  0.16133  0.14287  Biso   1.000  H
  H10      1.0000 0.44181  0.66132  0.14288  Biso   1.000  H
  H11      1.0000 0.94181  0.16133  0.14287  Biso   1.000  H
  H12      1.0000 0.94180  0.66132  0.14288  Biso   1.000  H
  H13      1.0000 0.46560  0.14346  0.24603  Biso   1.000  H
  H14      1.0000 0.46559  0.64345  0.24603  Biso   1.000  H
  H15      1.0000 0.96559  0.14346  0.24603  Biso   1.000  H
  H16      1.0000 0.96558  0.64345  0.24603  Biso   1.000  H
  H17      1.0000 0.06064  0.49907  0.04629  Biso   1.000  H
  H18      1.0000 0.06064  0.99906  0.04628  Biso   1.000  H
  H19      1.0000 0.56063  0.49906  0.04629  Biso   1.000  H
  H20      1.0000 0.56063  0.99906  0.04628  Biso   1.000  H
  H21      1.0000 0.00095  0.07034  0.01765  Biso   1.000  H
  H22      1.0000 0.00094  0.57033  0.01765  Biso   1.000  H
  H23      1.0000 0.50094  0.07034  0.01764  Biso   1.000  H
  H24      1.0000 0.50093  0.57033  0.01765  Biso   1.000  H
  H25      1.0000 0.26195  0.08276  0.12112  Biso   1.000  H
  H26      1.0000 0.26195  0.58275  0.12112  Biso   1.000  H
  H27      1.0000 0.76195  0.08276  0.12112  Biso   1.000  H
  H28      1.0000 0.76194  0.58275  0.12112  Biso   1.000  H
  H29      1.0000 0.20603  0.00725  0.11377  Biso   1.000  H
  H30      1.0000 0.20603  0.50723  0.11378  Biso   1.000  H
  H31      1.0000 0.70602  0.00725  0.11377  Biso   1.000  H
  H32      1.0000 0.70601  0.50723  0.11378  Biso   1.000  H
  H33      1.0000 0.06546  0.17456  0.04767  Biso   1.000  H
  H34      1.0000 0.06546  0.67455  0.04767  Biso   1.000  H
  H35      1.0000 0.56545  0.17456  0.04767  Biso   1.000  H
  H36      1.0000 0.56545  0.67455  0.04767  Biso   1.000  H
  H37      1.0000 0.18002  0.18032  0.08290  Biso   1.000  H
  H38      1.0000 0.18002  0.68031  0.08291  Biso   1.000  H
  H39      1.0000 0.68002  0.18033  0.08290  Biso   1.000  H
  H40      1.0000 0.68001  0.68031  0.08290  Biso   1.000  H
  H41      1.0000 0.12399  0.13897  0.29186  Biso   1.000  H
  H42      1.0000 0.12399  0.63896  0.29187  Biso   1.000  H
  H43      1.0000 0.62398  0.13897  0.29186  Biso   1.000  H
  H44      1.0000 0.62398  0.63896  0.29187  Biso   1.000  H
  H45      1.0000 0.21339  0.15920  0.22446  Biso   1.000  H
  H46      1.0000 0.21339  0.65919  0.22447  Biso   1.000  H
  H47      1.0000 0.71339  0.15920  0.22446  Biso   1.000  H
  H48      1.0000 0.71338  0.65919  0.22447  Biso   1.000  H
  H49      1.0000 0.31252  0.27952  0.20892  Biso   1.000  H
  H50      1.0000 0.31251  0.77951  0.20892  Biso   1.000  H
  H51      1.0000 0.81251  0.27952  0.20892  Biso   1.000  H
  H52      1.0000 0.81250  0.77951  0.20892  Biso   1.000  H
  H53      1.0000 0.34944  0.22397  0.28482  Biso   1.000  H
  H54      1.0000 0.34944  0.72396  0.28482  Biso   1.000  H
  H55      1.0000 0.84943  0.22397  0.28482  Biso   1.000  H
  H56      1.0000 0.84943  0.72396  0.28482  Biso   1.000  H
  H57      1.0000 0.19185  0.41132  0.35714  Biso   1.000  H
  H58      1.0000 0.19183  0.91131  0.35713  Biso   1.000  H
  H59      1.0000 0.69184  0.41132  0.35714  Biso   1.000  H
  H60      1.0000 0.69182  0.91131  0.35713  Biso   1.000  H
  H61      1.0000 0.21560  0.39346  0.25399  Biso   1.000  H
  H62      1.0000 0.21559  0.89344  0.25398  Biso   1.000  H
  H63      1.0000 0.71559  0.39346  0.25399  Biso   1.000  H
  H64      1.0000 0.71558  0.89344  0.25398  Biso   1.000  H
  H65      1.0000 0.31068  0.24905  0.45373  Biso   1.000  H
  H66      1.0000 0.31067  0.74905  0.45373  Biso   1.000  H
  H67      1.0000 0.81067  0.24905  0.45373  Biso   1.000  H
  H68      1.0000 0.81066  0.74905  0.45373  Biso   1.000  H
  H69      1.0000 0.25100  0.32031  0.48237  Biso   1.000  H
  H70      1.0000 0.25098  0.82031  0.48237  Biso   1.000  H
  H71      1.0000 0.75099  0.32031  0.48237  Biso   1.000  H
  H72      1.0000 0.75097  0.82031  0.48236  Biso   1.000  H
  H73      1.0000 0.01199  0.33273  0.37889  Biso   1.000  H
  H74      1.0000 0.01197  0.83273  0.37889  Biso   1.000  H
  H75      1.0000 0.51198  0.33273  0.37889  Biso   1.000  H
  H76      1.0000 0.51196  0.83273  0.37889  Biso   1.000  H
  H77      1.0000 0.45605  0.25722  0.38624  Biso   1.000  H
  H78      1.0000 0.45604  0.75722  0.38624  Biso   1.000  H
  H79      1.0000 0.95604  0.25722  0.38624  Biso   1.000  H
  H80      1.0000 0.95603  0.75722  0.38624  Biso   1.000  H
  H81      1.0000 0.31552  0.42454  0.45235  Biso   1.000  H
  H82      1.0000 0.31550  0.92453  0.45234  Biso   1.000  H
  H83      1.0000 0.81551  0.42454  0.45235  Biso   1.000  H
  H84      1.0000 0.81549  0.92453  0.45234  Biso   1.000  H
  H85      1.0000 0.43007  0.43030  0.41712  Biso   1.000  H
  H86      1.0000 0.43005  0.93030  0.41711  Biso   1.000  H
  H87      1.0000 0.93006  0.43030  0.41712  Biso   1.000  H
  H88      1.0000 0.93003  0.93030  0.41711  Biso   1.000  H
  H89      1.0000 0.37398  0.38897  0.20816  Biso   1.000  H
  H90      1.0000 0.37396  0.88895  0.20814  Biso   1.000  H
  H91      1.0000 0.87397  0.38897  0.20816  Biso   1.000  H
  H92      1.0000 0.87395  0.88895  0.20815  Biso   1.000  H
  H93      1.0000 0.46340  0.40919  0.27555  Biso   1.000  H
  H94      1.0000 0.46338  0.90918  0.27554  Biso   1.000  H
  H95      1.0000 0.96339  0.40919  0.27555  Biso   1.000  H
  H96      1.0000 0.96337  0.90918  0.27554  Biso   1.000  H
  H97      1.0000 0.31251  0.47046  0.70893  Biso   1.000  H
  H98      1.0000 0.31250  0.97045  0.70893  Biso   1.000  H
  H99      1.0000 0.81250  0.47046  0.70893  Biso   1.000  H
  H100     1.0000 0.81249  0.97045  0.70893  Biso   1.000  H
  H101     1.0000 0.34944  0.02602  0.78483  Biso   1.000  H
  H102     1.0000 0.34944  0.52602  0.78482  Biso   1.000  H
  H103     1.0000 0.84943  0.02602  0.78482  Biso   1.000  H
  H104     1.0000 0.84944  0.52601  0.78482  Biso   1.000  H
  H105     1.0000 0.19183  0.33866  0.85716  Biso   1.000  H
  H106     1.0000 0.19181  0.83864  0.85715  Biso   1.000  H
  H107     1.0000 0.69182  0.33865  0.85716  Biso   1.000  H
  H108     1.0000 0.69180  0.83864  0.85715  Biso   1.000  H
  H109     1.0000 0.21558  0.35653  0.75401  Biso   1.000  H
  H110     1.0000 0.21556  0.85652  0.75399  Biso   1.000  H
  H111     1.0000 0.71557  0.35653  0.75400  Biso   1.000  H
  H112     1.0000 0.71556  0.85652  0.75400  Biso   1.000  H
  H113     1.0000 0.31068  0.00092  0.95374  Biso   1.000  H
  H114     1.0000 0.31069  0.50092  0.95373  Biso   1.000  H
  H115     1.0000 0.81067  0.00092  0.95373  Biso   1.000  H
  H116     1.0000 0.81068  0.50092  0.95373  Biso   1.000  H
  H117     1.0000 0.25100  0.42966  0.98238  Biso   1.000  H
  H118     1.0000 0.25098  0.92964  0.98238  Biso   1.000  H
  H119     1.0000 0.75098  0.42966  0.98238  Biso   1.000  H
  H120     1.0000 0.75097  0.92964  0.98238  Biso   1.000  H
  H121     1.0000 0.01198  0.41725  0.87890  Biso   1.000  H
  H122     1.0000 0.01196  0.91723  0.87890  Biso   1.000  H
  H123     1.0000 0.51197  0.41725  0.87890  Biso   1.000  H
  H124     1.0000 0.51196  0.91722  0.87890  Biso   1.000  H
  H125     1.0000 0.45605  0.49276  0.88624  Biso   1.000  H
  H126     1.0000 0.45604  0.99274  0.88625  Biso   1.000  H
  H127     1.0000 0.95604  0.49276  0.88624  Biso   1.000  H
  H128     1.0000 0.95603  0.99274  0.88624  Biso   1.000  H
  H129     1.0000 0.31550  0.32544  0.95236  Biso   1.000  H
  H130     1.0000 0.31547  0.82542  0.95235  Biso   1.000  H
  H131     1.0000 0.81548  0.32544  0.95236  Biso   1.000  H
  H132     1.0000 0.81546  0.82542  0.95235  Biso   1.000  H
  H133     1.0000 0.43005  0.31968  0.91712  Biso   1.000  H
  H134     1.0000 0.43002  0.81965  0.91712  Biso   1.000  H
  H135     1.0000 0.93004  0.31968  0.91713  Biso   1.000  H
  H136     1.0000 0.93001  0.81966  0.91712  Biso   1.000  H
  H137     1.0000 0.37395  0.36102  0.70816  Biso   1.000  H
  H138     1.0000 0.37394  0.86101  0.70816  Biso   1.000  H
  H139     1.0000 0.87394  0.36102  0.70816  Biso   1.000  H
  H140     1.0000 0.87393  0.86101  0.70816  Biso   1.000  H
  H141     1.0000 0.46337  0.34080  0.77556  Biso   1.000  H
  H142     1.0000 0.46336  0.84078  0.77555  Biso   1.000  H
  H143     1.0000 0.96336  0.34080  0.77556  Biso   1.000  H
  H144     1.0000 0.96335  0.84078  0.77555  Biso   1.000  H
  H145     1.0000 0.06253  0.22046  0.79111  Biso   1.000  H
  H146     1.0000 0.06253  0.72045  0.79111  Biso   1.000  H
  H147     1.0000 0.56252  0.22046  0.79112  Biso   1.000  H
  H148     1.0000 0.56252  0.72045  0.79111  Biso   1.000  H
  H149     1.0000 0.09944  0.27602  0.71522  Biso   1.000  H
  H150     1.0000 0.09945  0.77601  0.71522  Biso   1.000  H
  H151     1.0000 0.59944  0.27602  0.71522  Biso   1.000  H
  H152     1.0000 0.59944  0.77601  0.71522  Biso   1.000  H
  H153     1.0000 0.44179  0.08867  0.64289  Biso   1.000  H
  H154     1.0000 0.44180  0.58866  0.64289  Biso   1.000  H
  H155     1.0000 0.94178  0.08867  0.64289  Biso   1.000  H
  H156     1.0000 0.94179  0.58865  0.64289  Biso   1.000  H
  H157     1.0000 0.46557  0.10653  0.74605  Biso   1.000  H
  H158     1.0000 0.46558  0.60652  0.74604  Biso   1.000  H
  H159     1.0000 0.96557  0.10653  0.74604  Biso   1.000  H
  H160     1.0000 0.96557  0.60652  0.74604  Biso   1.000  H
  H161     1.0000 0.06064  0.25094  0.54631  Biso   1.000  H
  H162     1.0000 0.06064  0.75093  0.54631  Biso   1.000  H
  H163     1.0000 0.56063  0.25094  0.54631  Biso   1.000  H
  H164     1.0000 0.56063  0.75093  0.54631  Biso   1.000  H
  H165     1.0000 0.00094  0.17968  0.51767  Biso   1.000  H
  H166     1.0000 0.00094  0.67966  0.51766  Biso   1.000  H
  H167     1.0000 0.50092  0.17967  0.51767  Biso   1.000  H
  H168     1.0000 0.50093  0.67967  0.51766  Biso   1.000  H
  H169     1.0000 0.26194  0.16726  0.62114  Biso   1.000  H
  H170     1.0000 0.26194  0.66725  0.62113  Biso   1.000  H
  H171     1.0000 0.76193  0.16725  0.62114  Biso   1.000  H
  H172     1.0000 0.76193  0.66725  0.62113  Biso   1.000  H
  H173     1.0000 0.20602  0.24277  0.61380  Biso   1.000  H
  H174     1.0000 0.20602  0.74276  0.61379  Biso   1.000  H
  H175     1.0000 0.70601  0.24277  0.61380  Biso   1.000  H
  H176     1.0000 0.70601  0.74276  0.61379  Biso   1.000  H
  H177     1.0000 0.06545  0.07546  0.54769  Biso   1.000  H
  H178     1.0000 0.06544  0.57544  0.54768  Biso   1.000  H
  H179     1.0000 0.56543  0.07545  0.54769  Biso   1.000  H
  H180     1.0000 0.56544  0.57545  0.54768  Biso   1.000  H
  H181     1.0000 0.18000  0.06969  0.58292  Biso   1.000  H
  H182     1.0000 0.18000  0.56968  0.58291  Biso   1.000  H
  H183     1.0000 0.67999  0.06969  0.58292  Biso   1.000  H
  H184     1.0000 0.68000  0.56968  0.58291  Biso   1.000  H
  H185     1.0000 0.12397  0.11102  0.79187  Biso   1.000  H
  H186     1.0000 0.12397  0.61101  0.79187  Biso   1.000  H
  H187     1.0000 0.62396  0.11102  0.79188  Biso   1.000  H
  H188     1.0000 0.62397  0.61101  0.79187  Biso   1.000  H
  H189     1.0000 0.21337  0.09080  0.72449  Biso   1.000  H
  H190     1.0000 0.21337  0.59079  0.72448  Biso   1.000  H
  H191     1.0000 0.71336  0.09080  0.72448  Biso   1.000  H
  H192     1.0000 0.71337  0.59079  0.72448  Biso   1.000  H
  C1       1.0000 0.08377  0.02482  0.22769  Biso   1.000  C
  C2       1.0000 0.08376  0.52481  0.22770  Biso   1.000  C
  C3       1.0000 0.58376  0.02482  0.22770  Biso   1.000  C
  C4       1.0000 0.58375  0.52481  0.22770  Biso   1.000  C
  C5       1.0000 0.48954  0.13652  0.18364  Biso   1.000  C
  C6       1.0000 0.48954  0.63650  0.18364  Biso   1.000  C
  C7       1.0000 0.98954  0.13652  0.18364  Biso   1.000  C
  C8       1.0000 0.98953  0.63650  0.18364  Biso   1.000  C
  C9       1.0000 0.04595  0.04910  0.06399  Biso   1.000  C
  C10      1.0000 0.04595  0.54909  0.06400  Biso   1.000  C
  C11      1.0000 0.54594  0.04910  0.06399  Biso   1.000  C
  C12      1.0000 0.54594  0.54909  0.06400  Biso   1.000  C
  C13      1.0000 0.19587  0.05843  0.12726  Biso   1.000  C
  C14      1.0000 0.19587  0.55842  0.12727  Biso   1.000  C
  C15      1.0000 0.69587  0.05843  0.12726  Biso   1.000  C
  C16      1.0000 0.69586  0.55842  0.12727  Biso   1.000  C
  C17      1.0000 0.11553  0.15391  0.08961  Biso   1.000  C
  C18      1.0000 0.11552  0.65390  0.08962  Biso   1.000  C
  C19      1.0000 0.61552  0.15391  0.08961  Biso   1.000  C
  C20      1.0000 0.61552  0.65390  0.08961  Biso   1.000  C
  C21      1.0000 0.14837  0.13342  0.22979  Biso   1.000  C
  C22      1.0000 0.14837  0.63341  0.22980  Biso   1.000  C
  C23      1.0000 0.64837  0.13342  0.22980  Biso   1.000  C
  C24      1.0000 0.64836  0.63341  0.22980  Biso   1.000  C
  C25      1.0000 0.33376  0.27481  0.27232  Biso   1.000  C
  C26      1.0000 0.33375  0.77480  0.27232  Biso   1.000  C
  C27      1.0000 0.83375  0.27481  0.27232  Biso   1.000  C
  C28      1.0000 0.83374  0.77480  0.27232  Biso   1.000  C
  C29      1.0000 0.23957  0.38651  0.31638  Biso   1.000  C
  C30      1.0000 0.23955  0.88650  0.31637  Biso   1.000  C
  C31      1.0000 0.73956  0.38651  0.31638  Biso   1.000  C
  C32      1.0000 0.73955  0.88650  0.31637  Biso   1.000  C
  C33      1.0000 0.29599  0.29908  0.43602  Biso   1.000  C
  C34      1.0000 0.29597  0.79907  0.43602  Biso   1.000  C
  C35      1.0000 0.79598  0.29908  0.43602  Biso   1.000  C
  C36      1.0000 0.79596  0.79908  0.43602  Biso   1.000  C
  C37      1.0000 0.44589  0.30841  0.37275  Biso   1.000  C
  C38      1.0000 0.44588  0.80841  0.37275  Biso   1.000  C
  C39      1.0000 0.94589  0.30841  0.37275  Biso   1.000  C
  C40      1.0000 0.94587  0.80841  0.37275  Biso   1.000  C
  C41      1.0000 0.36557  0.40388  0.41041  Biso   1.000  C
  C42      1.0000 0.36555  0.90388  0.41040  Biso   1.000  C
  C43      1.0000 0.86556  0.40388  0.41041  Biso   1.000  C
  C44      1.0000 0.86554  0.90388  0.41040  Biso   1.000  C
  C45      1.0000 0.39837  0.38341  0.27022  Biso   1.000  C
  C46      1.0000 0.39836  0.88341  0.27021  Biso   1.000  C
  C47      1.0000 0.89836  0.38341  0.27022  Biso   1.000  C
  C48      1.0000 0.89835  0.88340  0.27021  Biso   1.000  C
  C49      1.0000 0.33375  0.47518  0.77232  Biso   1.000  C
  C50      1.0000 0.33375  0.97516  0.77233  Biso   1.000  C
  C51      1.0000 0.83374  0.47518  0.77232  Biso   1.000  C
  C52      1.0000 0.83374  0.97516  0.77233  Biso   1.000  C
  C53      1.0000 0.23955  0.36347  0.81639  Biso   1.000  C
  C54      1.0000 0.23953  0.86346  0.81639  Biso   1.000  C
  C55      1.0000 0.73954  0.36347  0.81639  Biso   1.000  C
  C56      1.0000 0.73952  0.86346  0.81639  Biso   1.000  C
  C57      1.0000 0.29599  0.45090  0.93603  Biso   1.000  C
  C58      1.0000 0.29597  0.95088  0.93603  Biso   1.000  C
  C59      1.0000 0.79597  0.45090  0.93603  Biso   1.000  C
  C60      1.0000 0.79596  0.95088  0.93603  Biso   1.000  C
  C61      1.0000 0.44589  0.44157  0.87275  Biso   1.000  C
  C62      1.0000 0.44588  0.94155  0.87275  Biso   1.000  C
  C63      1.0000 0.94588  0.44157  0.87275  Biso   1.000  C
  C64      1.0000 0.94587  0.94155  0.87275  Biso   1.000  C
  C65      1.0000 0.36555  0.34609  0.91041  Biso   1.000  C
  C66      1.0000 0.36553  0.84607  0.91041  Biso   1.000  C
  C67      1.0000 0.86554  0.34609  0.91042  Biso   1.000  C
  C68      1.0000 0.86552  0.84607  0.91041  Biso   1.000  C
  C69      1.0000 0.39836  0.36657  0.77023  Biso   1.000  C
  C70      1.0000 0.39834  0.86655  0.77022  Biso   1.000  C
  C71      1.0000 0.89834  0.36657  0.77023  Biso   1.000  C
  C72      1.0000 0.89833  0.86656  0.77022  Biso   1.000  C
  C73      1.0000 0.08375  0.22518  0.72772  Biso   1.000  C
  C74      1.0000 0.08376  0.72516  0.72771  Biso   1.000  C
  C75      1.0000 0.58374  0.22518  0.72772  Biso   1.000  C
  C76      1.0000 0.58375  0.72517  0.72772  Biso   1.000  C
  C77      1.0000 0.48952  0.11348  0.68366  Biso   1.000  C
  C78      1.0000 0.48953  0.61347  0.68365  Biso   1.000  C
  C79      1.0000 0.98952  0.11348  0.68366  Biso   1.000  C
  C80      1.0000 0.98952  0.61347  0.68365  Biso   1.000  C
  C81      1.0000 0.04594  0.20091  0.56402  Biso   1.000  C
  C82      1.0000 0.04594  0.70090  0.56401  Biso   1.000  C
  C83      1.0000 0.54593  0.20091  0.56401  Biso   1.000  C
  C84      1.0000 0.54593  0.70090  0.56401  Biso   1.000  C
  C85      1.0000 0.19586  0.19158  0.62729  Biso   1.000  C
  C86      1.0000 0.19587  0.69157  0.62728  Biso   1.000  C
  C87      1.0000 0.69586  0.19158  0.62729  Biso   1.000  C
  C88      1.0000 0.69586  0.69157  0.62728  Biso   1.000  C
  C89      1.0000 0.11551  0.09611  0.58963  Biso   1.000  C
  C90      1.0000 0.11551  0.59609  0.58962  Biso   1.000  C
  C91      1.0000 0.61550  0.09610  0.58963  Biso   1.000  C
  C92      1.0000 0.61550  0.59610  0.58962  Biso   1.000  C
  C93      1.0000 0.14835  0.11658  0.72981  Biso   1.000  C
  C94      1.0000 0.14836  0.61656  0.72981  Biso   1.000  C
  C95      1.0000 0.64834  0.11657  0.72981  Biso   1.000  C
  C96      1.0000 0.64835  0.61657  0.72981  Biso   1.000  C
  N1       1.0000 0.16645  0.06469  0.21271  Biso   1.000  N
  N2       1.0000 0.16644  0.56468  0.21271  Biso   1.000  N
  N3       1.0000 0.66643  0.06469  0.21270  Biso   1.000  N
  N4       1.0000 0.66642  0.56468  0.21271  Biso   1.000  N
  N5       1.0000 0.13161  0.08636  0.06954  Biso   1.000  N
  N6       1.0000 0.13160  0.58635  0.06955  Biso   1.000  N
  N7       1.0000 0.63159  0.08636  0.06955  Biso   1.000  N
  N8       1.0000 0.63159  0.58635  0.06955  Biso   1.000  N
  N9       1.0000 0.08256  0.16398  0.17363  Biso   1.000  N
  N10      1.0000 0.08256  0.66397  0.17363  Biso   1.000  N
  N11      1.0000 0.58255  0.16398  0.17362  Biso   1.000  N
  N12      1.0000 0.58255  0.66396  0.17363  Biso   1.000  N
  N13      1.0000 0.41644  0.31468  0.28731  Biso   1.000  N
  N14      1.0000 0.41643  0.81467  0.28731  Biso   1.000  N
  N15      1.0000 0.91643  0.31468  0.28731  Biso   1.000  N
  N16      1.0000 0.91642  0.81467  0.28731  Biso   1.000  N
  N17      1.0000 0.38164  0.33634  0.43047  Biso   1.000  N
  N18      1.0000 0.38163  0.83634  0.43046  Biso   1.000  N
  N19      1.0000 0.88163  0.33634  0.43047  Biso   1.000  N
  N20      1.0000 0.88162  0.83634  0.43047  Biso   1.000  N
  N21      1.0000 0.33258  0.41397  0.32639  Biso   1.000  N
  N22      1.0000 0.33256  0.91396  0.32638  Biso   1.000  N
  N23      1.0000 0.83257  0.41397  0.32639  Biso   1.000  N
  N24      1.0000 0.83255  0.91396  0.32638  Biso   1.000  N
  N25      1.0000 0.41643  0.43531  0.78731  Biso   1.000  N
  N26      1.0000 0.41641  0.93529  0.78732  Biso   1.000  N
  N27      1.0000 0.91642  0.43531  0.78732  Biso   1.000  N
  N28      1.0000 0.91641  0.93529  0.78731  Biso   1.000  N
  N29      1.0000 0.38164  0.41364  0.93048  Biso   1.000  N
  N30      1.0000 0.38161  0.91362  0.93047  Biso   1.000  N
  N31      1.0000 0.88162  0.41364  0.93047  Biso   1.000  N
  N32      1.0000 0.88161  0.91362  0.93048  Biso   1.000  N
  N33      1.0000 0.33256  0.33602  0.82640  Biso   1.000  N
  N34      1.0000 0.33254  0.83600  0.82640  Biso   1.000  N
  N35      1.0000 0.83254  0.33602  0.82641  Biso   1.000  N
  N36      1.0000 0.83253  0.83600  0.82640  Biso   1.000  N
  N37      1.0000 0.16643  0.18532  0.71273  Biso   1.000  N
  N38      1.0000 0.16643  0.68530  0.71272  Biso   1.000  N
  N39      1.0000 0.66641  0.18531  0.71272  Biso   1.000  N
  N40      1.0000 0.66642  0.68530  0.71272  Biso   1.000  N
  N41      1.0000 0.13159  0.16366  0.56956  Biso   1.000  N
  N42      1.0000 0.13159  0.66364  0.56956  Biso   1.000  N
  N43      1.0000 0.63157  0.16365  0.56957  Biso   1.000  N
  N44      1.0000 0.63158  0.66365  0.56956  Biso   1.000  N
  N45      1.0000 0.08253  0.08602  0.67364  Biso   1.000  N
  N46      1.0000 0.08254  0.58601  0.67364  Biso   1.000  N
  N47      1.0000 0.58252  0.08603  0.67364  Biso   1.000  N
  N48      1.0000 0.58253  0.58601  0.67364  Biso   1.000  N
  O1       1.0000 0.39875  0.51638  0.17032  Biso   1.000  O
  O2       1.0000 0.39876  0.00000  0.17031  Biso   1.000  O
  O3       1.0000 0.89874  0.51638  0.17032  Biso   1.000  O
  O4       1.0000 0.89874  0.00000  0.17031  Biso   1.000  O
  O5       1.0000 0.14877  0.26638  0.32970  Biso   1.000  O
  O6       1.0000 0.14876  0.76637  0.32970  Biso   1.000  O
  O7       1.0000 0.64876  0.26638  0.32970  Biso   1.000  O
  O8       1.0000 0.64875  0.76637  0.32970  Biso   1.000  O
  O9       1.0000 0.14876  0.98361  0.82971  Biso   1.000  O
  O10      1.0000 0.14877  0.48360  0.82971  Biso   1.000  O
  O11      1.0000 0.64875  0.98361  0.82971  Biso   1.000  O
  O12      1.0000 0.64876  0.48359  0.82971  Biso   1.000  O
  O13      1.0000 0.39875  0.23360  0.67033  Biso   1.000  O
  O14      1.0000 0.39875  0.73359  0.67033  Biso   1.000  O
  O15      1.0000 0.89873  0.23361  0.67033  Biso   1.000  O
  O16      1.0000 0.89874  0.73359  0.67033  Biso   1.000  O
  O17      1.0000 0.16332  0.92563  0.63070  Biso   1.000  O
