data_image0
_cell_length_a       18.626
_cell_length_b       14.536
_cell_length_c       27.649
_cell_angle_alpha    89.935
_cell_angle_beta     89.867
_cell_angle_gamma    92.543

_symmetry_space_group_name_H-M    "P 1"
_symmetry_int_tables_number       1

loop_
  _symmetry_equiv_pos_as_xyz
  'x, y, z'

loop_
  _atom_site_label
  _atom_site_occupancy
  _atom_site_fract_x
  _atom_site_fract_y
  _atom_site_fract_z
  _atom_site_thermal_displace_type
  _atom_site_B_iso_or_equiv
  _atom_site_type_symbol
  Zn1      1.0000 0.34941  0.12076  0.33369  Biso   1.000  Zn
  Zn2      1.0000 0.84940  0.12076  0.33369  Biso   1.000  Zn
  Zn3      1.0000 0.49675  0.10572  0.37892  Biso   1.000  Zn
  Zn4      1.0000 0.99674  0.10572  0.37892  Biso   1.000  Zn
  Zn5      1.0000 0.15067  0.37931  0.83348  Biso   1.000  Zn
  Zn6      1.0000 0.65067  0.37931  0.83348  Biso   1.000  Zn
  Zn7      1.0000 0.00333  0.39409  0.87906  Biso   1.000  Zn
  Zn8      1.0000 0.50332  0.39409  0.87906  Biso   1.000  Zn
  Zn9      1.0000 0.15058  0.87922  0.66631  Biso   1.000  Zn
  Zn10     1.0000 0.65057  0.87922  0.66631  Biso   1.000  Zn
  Zn11     1.0000 0.00324  0.89426  0.62107  Biso   1.000  Zn
  Zn12     1.0000 0.50323  0.89426  0.62107  Biso   1.000  Zn
  Zn13     1.0000 0.34931  0.62068  0.16651  Biso   1.000  Zn
  Zn14     1.0000 0.84931  0.62067  0.16651  Biso   1.000  Zn
  Zn15     1.0000 0.49666  0.60589  0.12094  Biso   1.000  Zn
  Zn16     1.0000 0.99665  0.60589  0.12094  Biso   1.000  Zn
  H1       1.0000 0.05532  0.33059  0.36579  Biso   1.000  H
  H2       1.0000 0.55531  0.33059  0.36579  Biso   1.000  H
  H3       1.0000 0.08968  0.55561  0.26494  Biso   1.000  H
  H4       1.0000 0.58967  0.55561  0.26494  Biso   1.000  H
  H5       1.0000 0.39077  0.39156  0.26270  Biso   1.000  H
  H6       1.0000 0.89076  0.39156  0.26270  Biso   1.000  H
  H7       1.0000 0.17361  0.35578  0.37292  Biso   1.000  H
  H8       1.0000 0.67360  0.35578  0.37293  Biso   1.000  H
  H9       1.0000 0.12456  0.43384  0.40856  Biso   1.000  H
  H10      1.0000 0.62455  0.43384  0.40856  Biso   1.000  H
  H11      1.0000 0.30485  0.39017  0.35642  Biso   1.000  H
  H12      1.0000 0.80484  0.39016  0.35643  Biso   1.000  H
  H13      1.0000 0.41788  0.46351  0.38758  Biso   1.000  H
  H14      1.0000 0.91787  0.46350  0.38759  Biso   1.000  H
  H15      1.0000 0.29591  0.64355  0.47632  Biso   1.000  H
  H16      1.0000 0.79590  0.64357  0.47632  Biso   1.000  H
  H17      1.0000 0.18333  0.56594  0.44737  Biso   1.000  H
  H18      1.0000 0.68333  0.56595  0.44736  Biso   1.000  H
  H19      1.0000 0.99225  0.59028  0.38518  Biso   1.000  H
  H20      1.0000 0.49224  0.59030  0.38518  Biso   1.000  H
  H21      1.0000 0.10403  0.66640  0.41553  Biso   1.000  H
  H22      1.0000 0.60402  0.66641  0.41553  Biso   1.000  H
  H23      1.0000 0.00327  0.70827  0.55348  Biso   1.000  H
  H24      1.0000 0.50326  0.70825  0.55349  Biso   1.000  H
  H25      1.0000 0.39087  0.63427  0.52301  Biso   1.000  H
  H26      1.0000 0.89086  0.63428  0.52301  Biso   1.000  H
  H27      1.0000 0.12231  0.76408  0.54248  Biso   1.000  H
  H28      1.0000 0.62230  0.76408  0.54248  Biso   1.000  H
  H29      1.0000 0.17215  0.68206  0.51016  Biso   1.000  H
  H30      1.0000 0.67214  0.68206  0.51016  Biso   1.000  H
  H31      1.0000 0.21119  0.92472  0.41580  Biso   1.000  H
  H32      1.0000 0.71118  0.92472  0.41580  Biso   1.000  H
  H33      1.0000 0.41331  0.96586  0.49074  Biso   1.000  H
  H34      1.0000 0.91331  0.96587  0.49074  Biso   1.000  H
  H35      1.0000 0.25093  0.77788  0.54857  Biso   1.000  H
  H36      1.0000 0.75092  0.77788  0.54857  Biso   1.000  H
  H37      1.0000 0.44546  0.16902  0.86634  Biso   1.000  H
  H38      1.0000 0.94546  0.16902  0.86634  Biso   1.000  H
  H39      1.0000 0.41067  0.94439  0.76565  Biso   1.000  H
  H40      1.0000 0.91066  0.94438  0.76565  Biso   1.000  H
  H41      1.0000 0.10956  0.10856  0.76243  Biso   1.000  H
  H42      1.0000 0.60955  0.10856  0.76243  Biso   1.000  H
  H43      1.0000 0.32741  0.14450  0.87368  Biso   1.000  H
  H44      1.0000 0.82740  0.14450  0.87368  Biso   1.000  H
  H45      1.0000 0.37591  0.06615  0.90946  Biso   1.000  H
  H46      1.0000 0.87590  0.06616  0.90946  Biso   1.000  H
  H47      1.0000 0.19617  0.11155  0.85759  Biso   1.000  H
  H48      1.0000 0.69616  0.11155  0.85759  Biso   1.000  H
  H49      1.0000 0.08267  0.03821  0.88852  Biso   1.000  H
  H50      1.0000 0.58266  0.03821  0.88852  Biso   1.000  H
  H51      1.0000 0.20343  0.85599  0.97662  Biso   1.000  H
  H52      1.0000 0.70342  0.85600  0.97663  Biso   1.000  H
  H53      1.0000 0.31643  0.93375  0.94803  Biso   1.000  H
  H54      1.0000 0.81642  0.93375  0.94803  Biso   1.000  H
  H55      1.0000 0.50799  0.91162  0.88559  Biso   1.000  H
  H56      1.0000 0.00000  0.91162  0.88558  Biso   1.000  H
  H57      1.0000 0.39591  0.83515  0.91565  Biso   1.000  H
  H58      1.0000 0.89590  0.83516  0.91565  Biso   1.000  H
  H59      1.0000 0.49565  0.79053  0.05344  Biso   1.000  H
  H60      1.0000 0.99564  0.79052  0.05344  Biso   1.000  H
  H61      1.0000 0.10836  0.86456  0.02319  Biso   1.000  H
  H62      1.0000 0.60835  0.86457  0.02319  Biso   1.000  H
  H63      1.0000 0.37660  0.73582  0.04244  Biso   1.000  H
  H64      1.0000 0.87659  0.73582  0.04244  Biso   1.000  H
  H65      1.0000 0.32693  0.81768  0.00992  Biso   1.000  H
  H66      1.0000 0.82693  0.81768  0.00992  Biso   1.000  H
  H67      1.0000 0.28947  0.57578  0.91534  Biso   1.000  H
  H68      1.0000 0.78947  0.57578  0.91534  Biso   1.000  H
  H69      1.0000 0.08603  0.53449  0.98930  Biso   1.000  H
  H70      1.0000 0.58602  0.53449  0.98930  Biso   1.000  H
  H71      1.0000 0.24756  0.72189  0.04797  Biso   1.000  H
  H72      1.0000 0.74755  0.72189  0.04797  Biso   1.000  H
  H73      1.0000 0.44467  0.66939  0.63420  Biso   1.000  H
  H74      1.0000 0.94466  0.66939  0.63420  Biso   1.000  H
  H75      1.0000 0.41031  0.44438  0.73506  Biso   1.000  H
  H76      1.0000 0.91030  0.44438  0.73506  Biso   1.000  H
  H77      1.0000 0.10922  0.60842  0.73729  Biso   1.000  H
  H78      1.0000 0.60921  0.60842  0.73729  Biso   1.000  H
  H79      1.0000 0.32637  0.64420  0.62706  Biso   1.000  H
  H80      1.0000 0.82637  0.64420  0.62706  Biso   1.000  H
  H81      1.0000 0.37543  0.56613  0.59144  Biso   1.000  H
  H82      1.0000 0.87543  0.56613  0.59143  Biso   1.000  H
  H83      1.0000 0.19514  0.60980  0.64357  Biso   1.000  H
  H84      1.0000 0.69513  0.60981  0.64356  Biso   1.000  H
  H85      1.0000 0.08211  0.53646  0.61241  Biso   1.000  H
  H86      1.0000 0.58210  0.53646  0.61240  Biso   1.000  H
  H87      1.0000 0.20408  0.35640  0.52368  Biso   1.000  H
  H88      1.0000 0.70407  0.35640  0.52368  Biso   1.000  H
  H89      1.0000 0.31666  0.43402  0.55263  Biso   1.000  H
  H90      1.0000 0.81665  0.43402  0.55263  Biso   1.000  H
  H91      1.0000 0.50775  0.40967  0.61481  Biso   1.000  H
  H92      1.0000 0.00000  0.40967  0.61481  Biso   1.000  H
  H93      1.0000 0.39597  0.33356  0.58446  Biso   1.000  H
  H94      1.0000 0.89596  0.33355  0.58446  Biso   1.000  H
  H95      1.0000 0.49672  0.29171  0.44651  Biso   1.000  H
  H96      1.0000 0.99671  0.29171  0.44651  Biso   1.000  H
  H97      1.0000 0.10913  0.36569  0.47698  Biso   1.000  H
  H98      1.0000 0.60912  0.36569  0.47698  Biso   1.000  H
  H99      1.0000 0.37769  0.23588  0.45752  Biso   1.000  H
  H100     1.0000 0.87768  0.23588  0.45752  Biso   1.000  H
  H101     1.0000 0.32785  0.31791  0.48983  Biso   1.000  H
  H102     1.0000 0.82784  0.31791  0.48983  Biso   1.000  H
  H103     1.0000 0.28880  0.07525  0.58420  Biso   1.000  H
  H104     1.0000 0.78879  0.07525  0.58420  Biso   1.000  H
  H105     1.0000 0.08668  0.03410  0.50925  Biso   1.000  H
  H106     1.0000 0.58667  0.03411  0.50925  Biso   1.000  H
  H107     1.0000 0.24906  0.22210  0.45143  Biso   1.000  H
  H108     1.0000 0.74906  0.22210  0.45143  Biso   1.000  H
  H109     1.0000 0.05453  0.83096  0.13365  Biso   1.000  H
  H110     1.0000 0.55452  0.83096  0.13366  Biso   1.000  H
  H111     1.0000 0.08932  0.05560  0.23435  Biso   1.000  H
  H112     1.0000 0.58931  0.05559  0.23435  Biso   1.000  H
  H113     1.0000 0.39043  0.89143  0.23756  Biso   1.000  H
  H114     1.0000 0.89042  0.89143  0.23756  Biso   1.000  H
  H115     1.0000 0.17258  0.85547  0.12632  Biso   1.000  H
  H116     1.0000 0.67258  0.85547  0.12633  Biso   1.000  H
  H117     1.0000 0.12408  0.93381  0.09054  Biso   1.000  H
  H118     1.0000 0.62408  0.93381  0.09055  Biso   1.000  H
  H119     1.0000 0.30383  0.88843  0.14241  Biso   1.000  H
  H120     1.0000 0.80382  0.88843  0.14241  Biso   1.000  H
  H121     1.0000 0.41732  0.96176  0.11148  Biso   1.000  H
  H122     1.0000 0.91731  0.96177  0.11148  Biso   1.000  H
  H123     1.0000 0.29656  0.14397  0.02337  Biso   1.000  H
  H124     1.0000 0.79655  0.14397  0.02337  Biso   1.000  H
  H125     1.0000 0.18356  0.06622  0.05197  Biso   1.000  H
  H126     1.0000 0.68355  0.06622  0.05197  Biso   1.000  H
  H127     1.0000 0.99201  0.08835  0.11441  Biso   1.000  H
  H128     1.0000 0.49200  0.08835  0.11441  Biso   1.000  H
  H129     1.0000 0.10408  0.16481  0.08435  Biso   1.000  H
  H130     1.0000 0.60407  0.16481  0.08435  Biso   1.000  H
  H131     1.0000 0.00434  0.20946  0.94656  Biso   1.000  H
  H132     1.0000 0.50433  0.20945  0.94656  Biso   1.000  H
  H133     1.0000 0.39164  0.13542  0.97681  Biso   1.000  H
  H134     1.0000 0.89163  0.13543  0.97681  Biso   1.000  H
  H135     1.0000 0.12339  0.26415  0.95755  Biso   1.000  H
  H136     1.0000 0.62339  0.26415  0.95755  Biso   1.000  H
  H137     1.0000 0.17306  0.18230  0.99008  Biso   1.000  H
  H138     1.0000 0.67305  0.18230  0.99008  Biso   1.000  H
  H139     1.0000 0.21051  0.42420  0.08465  Biso   1.000  H
  H140     1.0000 0.71050  0.42420  0.08465  Biso   1.000  H
  H141     1.0000 0.41395  0.46551  0.01069  Biso   1.000  H
  H142     1.0000 0.91394  0.46551  0.01070  Biso   1.000  H
  H143     1.0000 0.25243  0.27809  0.95202  Biso   1.000  H
  H144     1.0000 0.75242  0.27809  0.95202  Biso   1.000  H
  C1       1.0000 0.46906  0.35414  0.31611  Biso   1.000  C
  C2       1.0000 0.96905  0.35414  0.31611  Biso   1.000  C
  C3       1.0000 0.03658  0.37481  0.33713  Biso   1.000  C
  C4       1.0000 0.53658  0.37481  0.33713  Biso   1.000  C
  C5       1.0000 0.07931  0.44930  0.31945  Biso   1.000  C
  C6       1.0000 0.57931  0.44930  0.31945  Biso   1.000  C
  C7       1.0000 0.05522  0.49998  0.27977  Biso   1.000  C
  C8       1.0000 0.55521  0.49998  0.27977  Biso   1.000  C
  C9       1.0000 0.48746  0.47970  0.25983  Biso   1.000  C
  C10      1.0000 0.98745  0.47970  0.25983  Biso   1.000  C
  C11      1.0000 0.44336  0.40740  0.27832  Biso   1.000  C
  C12      1.0000 0.94335  0.40740  0.27832  Biso   1.000  C
  C13      1.0000 0.42650  0.27226  0.33329  Biso   1.000  C
  C14      1.0000 0.92649  0.27226  0.33329  Biso   1.000  C
  C15      1.0000 0.46210  0.53353  0.21765  Biso   1.000  C
  C16      1.0000 0.96209  0.53353  0.21765  Biso   1.000  C
  C17      1.0000 0.16735  0.42889  0.38127  Biso   1.000  C
  C18      1.0000 0.66734  0.42889  0.38127  Biso   1.000  C
  C19      1.0000 0.23608  0.47384  0.39930  Biso   1.000  C
  C20      1.0000 0.73607  0.47384  0.39930  Biso   1.000  C
  C21      1.0000 0.30289  0.44577  0.38283  Biso   1.000  C
  C22      1.0000 0.80288  0.44576  0.38283  Biso   1.000  C
  C23      1.0000 0.36651  0.48767  0.40004  Biso   1.000  C
  C24      1.0000 0.86650  0.48766  0.40005  Biso   1.000  C
  C25      1.0000 0.36557  0.55953  0.43407  Biso   1.000  C
  C26      1.0000 0.86557  0.55953  0.43407  Biso   1.000  C
  C27      1.0000 0.29835  0.58708  0.45055  Biso   1.000  C
  C28      1.0000 0.79835  0.58709  0.45055  Biso   1.000  C
  C29      1.0000 0.23490  0.54443  0.43370  Biso   1.000  C
  C30      1.0000 0.73489  0.54444  0.43370  Biso   1.000  C
  C31      1.0000 0.43312  0.60447  0.45212  Biso   1.000  C
  C32      1.0000 0.93311  0.60447  0.45212  Biso   1.000  C
  C33      1.0000 0.99455  0.61450  0.42249  Biso   1.000  C
  C34      1.0000 0.49455  0.61451  0.42249  Biso   1.000  C
  C35      1.0000 0.05782  0.65725  0.43962  Biso   1.000  C
  C36      1.0000 0.55781  0.65726  0.43962  Biso   1.000  C
  C37      1.0000 0.06212  0.69085  0.48712  Biso   1.000  C
  C38      1.0000 0.56211  0.69085  0.48712  Biso   1.000  C
  C39      1.0000 0.00112  0.68182  0.51662  Biso   1.000  C
  C40      1.0000 0.50112  0.68182  0.51663  Biso   1.000  C
  C41      1.0000 0.43764  0.63976  0.49933  Biso   1.000  C
  C42      1.0000 0.93763  0.63977  0.49933  Biso   1.000  C
  C43      1.0000 0.13101  0.73409  0.50646  Biso   1.000  C
  C44      1.0000 0.63100  0.73409  0.50646  Biso   1.000  C
  C45      1.0000 0.22341  0.84461  0.48073  Biso   1.000  C
  C46      1.0000 0.72340  0.84461  0.48073  Biso   1.000  C
  C47      1.0000 0.24673  0.90915  0.44562  Biso   1.000  C
  C48      1.0000 0.74672  0.90915  0.44562  Biso   1.000  C
  C49      1.0000 0.31542  0.95124  0.44892  Biso   1.000  C
  C50      1.0000 0.81542  0.95124  0.44892  Biso   1.000  C
  C51      1.0000 0.36025  0.93220  0.48804  Biso   1.000  C
  C52      1.0000 0.86024  0.93220  0.48804  Biso   1.000  C
  C53      1.0000 0.33583  0.87077  0.52382  Biso   1.000  C
  C54      1.0000 0.83582  0.87077  0.52382  Biso   1.000  C
  C55      1.0000 0.26776  0.82574  0.52002  Biso   1.000  C
  C56      1.0000 0.76775  0.82574  0.52003  Biso   1.000  C
  C57      1.0000 0.34296  0.01559  0.41078  Biso   1.000  C
  C58      1.0000 0.84295  0.01559  0.41078  Biso   1.000  C
  C59      1.0000 0.38245  0.85305  0.56680  Biso   1.000  C
  C60      1.0000 0.88244  0.85305  0.56680  Biso   1.000  C
  C61      1.0000 0.03143  0.14573  0.81621  Biso   1.000  C
  C62      1.0000 0.53142  0.14573  0.81620  Biso   1.000  C
  C63      1.0000 0.46402  0.12493  0.83756  Biso   1.000  C
  C64      1.0000 0.96401  0.12493  0.83756  Biso   1.000  C
  C65      1.0000 0.42122  0.05053  0.82010  Biso   1.000  C
  C66      1.0000 0.92121  0.05053  0.82010  Biso   1.000  C
  C67      1.0000 0.44518  0.99997  0.78031  Biso   1.000  C
  C68      1.0000 0.94517  0.99997  0.78031  Biso   1.000  C
  C69      1.0000 0.01286  0.02035  0.76003  Biso   1.000  C
  C70      1.0000 0.51286  0.02035  0.76003  Biso   1.000  C
  C71      1.0000 0.05702  0.09262  0.77829  Biso   1.000  C
  C72      1.0000 0.55702  0.09262  0.77829  Biso   1.000  C
  C73      1.0000 0.07386  0.22766  0.83323  Biso   1.000  C
  C74      1.0000 0.57385  0.22766  0.83323  Biso   1.000  C
  C75      1.0000 0.03809  0.96652  0.71775  Biso   1.000  C
  C76      1.0000 0.53809  0.96652  0.71775  Biso   1.000  C
  C77      1.0000 0.33330  0.07135  0.88218  Biso   1.000  C
  C78      1.0000 0.83330  0.07135  0.88218  Biso   1.000  C
  C79      1.0000 0.26431  0.02681  0.90023  Biso   1.000  C
  C80      1.0000 0.76430  0.02682  0.90023  Biso   1.000  C
  C81      1.0000 0.19774  0.05553  0.88384  Biso   1.000  C
  C82      1.0000 0.69773  0.05554  0.88384  Biso   1.000  C
  C83      1.0000 0.13388  0.01361  0.90088  Biso   1.000  C
  C84      1.0000 0.63387  0.01361  0.90089  Biso   1.000  C
  C85      1.0000 0.13437  0.94108  0.93463  Biso   1.000  C
  C86      1.0000 0.63436  0.94108  0.93463  Biso   1.000  C
  C87      1.0000 0.20135  0.91294  0.95106  Biso   1.000  C
  C88      1.0000 0.70134  0.91294  0.95106  Biso   1.000  C
  C89      1.0000 0.26503  0.95566  0.93442  Biso   1.000  C
  C90      1.0000 0.76502  0.95567  0.93442  Biso   1.000  C
  C91      1.0000 0.06662  0.89598  0.95245  Biso   1.000  C
  C92      1.0000 0.56661  0.89598  0.95245  Biso   1.000  C
  C93      1.0000 0.50538  0.88672  0.92280  Biso   1.000  C
  C94      1.0000 0.00000  0.88672  0.92280  Biso   1.000  C
  C95      1.0000 0.44195  0.84376  0.93978  Biso   1.000  C
  C96      1.0000 0.94194  0.84376  0.93977  Biso   1.000  C
  C97      1.0000 0.43728  0.80936  0.98716  Biso   1.000  C
  C98      1.0000 0.93727  0.80936  0.98716  Biso   1.000  C
  C99      1.0000 0.49807  0.81763  0.01668  Biso   1.000  C
  C100     1.0000 0.99806  0.81762  0.01668  Biso   1.000  C
  C101     1.0000 0.06172  0.85981  0.99951  Biso   1.000  C
  C102     1.0000 0.56171  0.85982  0.99952  Biso   1.000  C
  C103     1.0000 0.36825  0.76585  0.00639  Biso   1.000  C
  C104     1.0000 0.86825  0.76585  0.00638  Biso   1.000  C
  C105     1.0000 0.27627  0.65541  0.98029  Biso   1.000  C
  C106     1.0000 0.77626  0.65541  0.98029  Biso   1.000  C
  C107     1.0000 0.25346  0.59123  0.94502  Biso   1.000  C
  C108     1.0000 0.75345  0.59123  0.94502  Biso   1.000  C
  C109     1.0000 0.18469  0.54921  0.94801  Biso   1.000  C
  C110     1.0000 0.68468  0.54921  0.94801  Biso   1.000  C
  C111     1.0000 0.13915  0.56814  0.98687  Biso   1.000  C
  C112     1.0000 0.63914  0.56814  0.98687  Biso   1.000  C
  C113     1.0000 0.16297  0.62935  0.02275  Biso   1.000  C
  C114     1.0000 0.66296  0.62934  0.02275  Biso   1.000  C
  C115     1.0000 0.23118  0.67422  0.01934  Biso   1.000  C
  C116     1.0000 0.73118  0.67422  0.01934  Biso   1.000  C
  C117     1.0000 0.15762  0.48513  0.90983  Biso   1.000  C
  C118     1.0000 0.65762  0.48513  0.90983  Biso   1.000  C
  C119     1.0000 0.11546  0.64701  0.06536  Biso   1.000  C
  C120     1.0000 0.61545  0.64701  0.06536  Biso   1.000  C
  C121     1.0000 0.03093  0.64584  0.68388  Biso   1.000  C
  C122     1.0000 0.53092  0.64584  0.68388  Biso   1.000  C
  C123     1.0000 0.46341  0.62516  0.66287  Biso   1.000  C
  C124     1.0000 0.96340  0.62516  0.66287  Biso   1.000  C
  C125     1.0000 0.42067  0.55068  0.68055  Biso   1.000  C
  C126     1.0000 0.92067  0.55068  0.68055  Biso   1.000  C
  C127     1.0000 0.44477  0.50000  0.72023  Biso   1.000  C
  C128     1.0000 0.94477  0.50000  0.72023  Biso   1.000  C
  C129     1.0000 0.01253  0.52028  0.74016  Biso   1.000  C
  C130     1.0000 0.51252  0.52028  0.74016  Biso   1.000  C
  C131     1.0000 0.05663  0.59258  0.72167  Biso   1.000  C
  C132     1.0000 0.55662  0.59258  0.72167  Biso   1.000  C
  C133     1.0000 0.07349  0.72772  0.66670  Biso   1.000  C
  C134     1.0000 0.57349  0.72772  0.66670  Biso   1.000  C
  C135     1.0000 0.03789  0.46645  0.78234  Biso   1.000  C
  C136     1.0000 0.53788  0.46645  0.78234  Biso   1.000  C
  C137     1.0000 0.33264  0.57108  0.61872  Biso   1.000  C
  C138     1.0000 0.83263  0.57108  0.61872  Biso   1.000  C
  C139     1.0000 0.26391  0.52613  0.60069  Biso   1.000  C
  C140     1.0000 0.76390  0.52613  0.60069  Biso   1.000  C
  C141     1.0000 0.19709  0.55420  0.61716  Biso   1.000  C
  C142     1.0000 0.69709  0.55421  0.61716  Biso   1.000  C
  C143     1.0000 0.13348  0.51230  0.59995  Biso   1.000  C
  C144     1.0000 0.63348  0.51230  0.59995  Biso   1.000  C
  C145     1.0000 0.13442  0.44043  0.56592  Biso   1.000  C
  C146     1.0000 0.63441  0.44043  0.56592  Biso   1.000  C
  C147     1.0000 0.20164  0.41288  0.54944  Biso   1.000  C
  C148     1.0000 0.70163  0.41288  0.54944  Biso   1.000  C
  C149     1.0000 0.26509  0.45554  0.56629  Biso   1.000  C
  C150     1.0000 0.76508  0.45553  0.56629  Biso   1.000  C
  C151     1.0000 0.06688  0.39549  0.54787  Biso   1.000  C
  C152     1.0000 0.56687  0.39549  0.54787  Biso   1.000  C
  C153     1.0000 0.50544  0.38546  0.57751  Biso   1.000  C
  C154     1.0000 0.00000  0.38546  0.57751  Biso   1.000  C
  C155     1.0000 0.44217  0.34271  0.56037  Biso   1.000  C
  C156     1.0000 0.94216  0.34270  0.56037  Biso   1.000  C
  C157     1.0000 0.43787  0.30912  0.51287  Biso   1.000  C
  C158     1.0000 0.93787  0.30912  0.51287  Biso   1.000  C
  C159     1.0000 0.49887  0.31815  0.48337  Biso   1.000  C
  C160     1.0000 0.99886  0.31815  0.48337  Biso   1.000  C
  C161     1.0000 0.06236  0.36020  0.50066  Biso   1.000  C
  C162     1.0000 0.56235  0.36020  0.50066  Biso   1.000  C
  C163     1.0000 0.36898  0.26588  0.49353  Biso   1.000  C
  C164     1.0000 0.86897  0.26588  0.49353  Biso   1.000  C
  C165     1.0000 0.27658  0.15536  0.51926  Biso   1.000  C
  C166     1.0000 0.77657  0.15536  0.51926  Biso   1.000  C
  C167     1.0000 0.25326  0.09082  0.55437  Biso   1.000  C
  C168     1.0000 0.75325  0.09082  0.55437  Biso   1.000  C
  C169     1.0000 0.18457  0.04873  0.55108  Biso   1.000  C
  C170     1.0000 0.68456  0.04873  0.55108  Biso   1.000  C
  C171     1.0000 0.13974  0.06777  0.51195  Biso   1.000  C
  C172     1.0000 0.63973  0.06777  0.51196  Biso   1.000  C
  C173     1.0000 0.16416  0.12920  0.47617  Biso   1.000  C
  C174     1.0000 0.66415  0.12920  0.47617  Biso   1.000  C
  C175     1.0000 0.23223  0.17423  0.47997  Biso   1.000  C
  C176     1.0000 0.73222  0.17423  0.47997  Biso   1.000  C
  C177     1.0000 0.15703  0.98439  0.58922  Biso   1.000  C
  C178     1.0000 0.65703  0.98439  0.58922  Biso   1.000  C
  C179     1.0000 0.11754  0.14692  0.43319  Biso   1.000  C
  C180     1.0000 0.61753  0.14693  0.43319  Biso   1.000  C
  C181     1.0000 0.46856  0.85425  0.18379  Biso   1.000  C
  C182     1.0000 0.96855  0.85425  0.18379  Biso   1.000  C
  C183     1.0000 0.03597  0.87505  0.16244  Biso   1.000  C
  C184     1.0000 0.53597  0.87505  0.16244  Biso   1.000  C
  C185     1.0000 0.07877  0.94945  0.17989  Biso   1.000  C
  C186     1.0000 0.57876  0.94945  0.17990  Biso   1.000  C
  C187     1.0000 0.05481  0.00001  0.21969  Biso   1.000  C
  C188     1.0000 0.55480  0.00001  0.21969  Biso   1.000  C
  C189     1.0000 0.48712  0.97963  0.23997  Biso   1.000  C
  C190     1.0000 0.98712  0.97963  0.23996  Biso   1.000  C
  C191     1.0000 0.44296  0.90736  0.22170  Biso   1.000  C
  C192     1.0000 0.94296  0.90736  0.22170  Biso   1.000  C
  C193     1.0000 0.42613  0.77232  0.16677  Biso   1.000  C
  C194     1.0000 0.92612  0.77232  0.16677  Biso   1.000  C
  C195     1.0000 0.46189  0.03346  0.28225  Biso   1.000  C
  C196     1.0000 0.96189  0.03346  0.28225  Biso   1.000  C
  C197     1.0000 0.16669  0.92862  0.11782  Biso   1.000  C
  C198     1.0000 0.66668  0.92862  0.11782  Biso   1.000  C
  C199     1.0000 0.23569  0.97316  0.09977  Biso   1.000  C
  C200     1.0000 0.73568  0.97316  0.09977  Biso   1.000  C
  C201     1.0000 0.30226  0.94444  0.11616  Biso   1.000  C
  C202     1.0000 0.80225  0.94444  0.11616  Biso   1.000  C
  C203     1.0000 0.36611  0.98636  0.09911  Biso   1.000  C
  C204     1.0000 0.86611  0.98637  0.09912  Biso   1.000  C
  C205     1.0000 0.36562  0.05889  0.06536  Biso   1.000  C
  C206     1.0000 0.86562  0.05890  0.06537  Biso   1.000  C
  C207     1.0000 0.29864  0.08703  0.04894  Biso   1.000  C
  C208     1.0000 0.79863  0.08703  0.04894  Biso   1.000  C
  C209     1.0000 0.23496  0.04430  0.06557  Biso   1.000  C
  C210     1.0000 0.73495  0.04431  0.06558  Biso   1.000  C
  C211     1.0000 0.43337  0.10399  0.04755  Biso   1.000  C
  C212     1.0000 0.93336  0.10400  0.04755  Biso   1.000  C
  C213     1.0000 0.99462  0.11325  0.07720  Biso   1.000  C
  C214     1.0000 0.49461  0.11325  0.07720  Biso   1.000  C
  C215     1.0000 0.05805  0.15621  0.06022  Biso   1.000  C
  C216     1.0000 0.55804  0.15621  0.06022  Biso   1.000  C
  C217     1.0000 0.06271  0.19062  0.01283  Biso   1.000  C
  C218     1.0000 0.56271  0.19062  0.01283  Biso   1.000  C
  C219     1.0000 0.00192  0.18235  0.98332  Biso   1.000  C
  C220     1.0000 0.50191  0.18235  0.98332  Biso   1.000  C
  C221     1.0000 0.43827  0.14016  0.00048  Biso   1.000  C
  C222     1.0000 0.93826  0.14017  0.00049  Biso   1.000  C
  C223     1.0000 0.13174  0.23412  0.99361  Biso   1.000  C
  C224     1.0000 0.63173  0.23412  0.99361  Biso   1.000  C
  C225     1.0000 0.22372  0.34458  0.01970  Biso   1.000  C
  C226     1.0000 0.72371  0.34458  0.01970  Biso   1.000  C
  C227     1.0000 0.24652  0.40876  0.05498  Biso   1.000  C
  C228     1.0000 0.74652  0.40876  0.05498  Biso   1.000  C
  C229     1.0000 0.31529  0.45078  0.05198  Biso   1.000  C
  C230     1.0000 0.81528  0.45078  0.05198  Biso   1.000  C
  C231     1.0000 0.36083  0.43186  0.01312  Biso   1.000  C
  C232     1.0000 0.86082  0.43186  0.01312  Biso   1.000  C
  C233     1.0000 0.33701  0.37065  0.97724  Biso   1.000  C
  C234     1.0000 0.83700  0.37065  0.97724  Biso   1.000  C
  C235     1.0000 0.26880  0.32577  0.98065  Biso   1.000  C
  C236     1.0000 0.76880  0.32577  0.98065  Biso   1.000  C
  C237     1.0000 0.34236  0.51486  0.09016  Biso   1.000  C
  C238     1.0000 0.84235  0.51486  0.09016  Biso   1.000  C
  C239     1.0000 0.38452  0.35300  0.93463  Biso   1.000  C
  C240     1.0000 0.88452  0.35299  0.93463  Biso   1.000  C
  O1       1.0000 0.36890  0.24623  0.31027  Biso   1.000  O
  O2       1.0000 0.86890  0.24623  0.31027  Biso   1.000  O
  O3       1.0000 0.44715  0.22702  0.37019  Biso   1.000  O
  O4       1.0000 0.94714  0.22702  0.37019  Biso   1.000  O
  O5       1.0000 0.14450  0.47676  0.33776  Biso   1.000  O
  O6       1.0000 0.64449  0.47676  0.33776  Biso   1.000  O
  O7       1.0000 0.15653  0.80464  0.47309  Biso   1.000  O
  O8       1.0000 0.65652  0.80464  0.47309  Biso   1.000  O
  O9       1.0000 0.36873  0.78902  0.59574  Biso   1.000  O
  O10      1.0000 0.86873  0.78902  0.59574  Biso   1.000  O
  O11      1.0000 0.43807  0.91129  0.57014  Biso   1.000  O
  O12      1.0000 0.93806  0.91130  0.57014  Biso   1.000  O
  O13      1.0000 0.41040  0.03027  0.40664  Biso   1.000  O
  O14      1.0000 0.91039  0.03027  0.40664  Biso   1.000  O
  O15      1.0000 0.39406  0.53861  0.21284  Biso   1.000  O
  O16      1.0000 0.89406  0.53861  0.21284  Biso   1.000  O
  O17      1.0000 0.00969  0.56992  0.18934  Biso   1.000  O
  O18      1.0000 0.50968  0.56992  0.18934  Biso   1.000  O
  O19      1.0000 0.29677  0.05363  0.38284  Biso   1.000  O
  O20      1.0000 0.79676  0.05363  0.38283  Biso   1.000  O
  O21      1.0000 0.13150  0.25387  0.81013  Biso   1.000  O
  O22      1.0000 0.63149  0.25387  0.81013  Biso   1.000  O
  O23      1.0000 0.05303  0.27282  0.87011  Biso   1.000  O
  O24      1.0000 0.55302  0.27282  0.87011  Biso   1.000  O
  O25      1.0000 0.35610  0.02311  0.83879  Biso   1.000  O
  O26      1.0000 0.85610  0.02310  0.83879  Biso   1.000  O
  O27      1.0000 0.34334  0.69524  0.97302  Biso   1.000  O
  O28      1.0000 0.84333  0.69524  0.97302  Biso   1.000  O
  O29      1.0000 0.12843  0.71125  0.09420  Biso   1.000  O
  O30      1.0000 0.62842  0.71125  0.09420  Biso   1.000  O
  O31      1.0000 0.05992  0.58861  0.06869  Biso   1.000  O
  O32      1.0000 0.55991  0.58861  0.06869  Biso   1.000  O
  O33      1.0000 0.09031  0.46897  0.90622  Biso   1.000  O
  O34      1.0000 0.59030  0.46897  0.90622  Biso   1.000  O
  O35      1.0000 0.10615  0.96139  0.71270  Biso   1.000  O
  O36      1.0000 0.60615  0.96139  0.71270  Biso   1.000  O
  O37      1.0000 0.49051  0.93025  0.68961  Biso   1.000  O
  O38      1.0000 0.99050  0.93025  0.68961  Biso   1.000  O
  O39      1.0000 0.20394  0.44844  0.88137  Biso   1.000  O
  O40      1.0000 0.70393  0.44844  0.88137  Biso   1.000  O
  O41      1.0000 0.13108  0.75375  0.68972  Biso   1.000  O
  O42      1.0000 0.63108  0.75375  0.68972  Biso   1.000  O
  O43      1.0000 0.05284  0.77296  0.62980  Biso   1.000  O
  O44      1.0000 0.55283  0.77296  0.62980  Biso   1.000  O
  O45      1.0000 0.35549  0.52322  0.66223  Biso   1.000  O
  O46      1.0000 0.85548  0.52322  0.66223  Biso   1.000  O
  O47      1.0000 0.34346  0.19533  0.52690  Biso   1.000  O
  O48      1.0000 0.84345  0.19533  0.52690  Biso   1.000  O
  O49      1.0000 0.13126  0.21096  0.40426  Biso   1.000  O
  O50      1.0000 0.63125  0.21096  0.40426  Biso   1.000  O
  O51      1.0000 0.06192  0.08867  0.42985  Biso   1.000  O
  O52      1.0000 0.56191  0.08868  0.42985  Biso   1.000  O
  O53      1.0000 0.08959  0.96971  0.59336  Biso   1.000  O
  O54      1.0000 0.58958  0.96971  0.59336  Biso   1.000  O
  O55      1.0000 0.10592  0.46137  0.78716  Biso   1.000  O
  O56      1.0000 0.60592  0.46137  0.78716  Biso   1.000  O
  O57      1.0000 0.49030  0.43006  0.81066  Biso   1.000  O
  O58      1.0000 0.99030  0.43006  0.81066  Biso   1.000  O
  O59      1.0000 0.20322  0.94634  0.61716  Biso   1.000  O
  O60      1.0000 0.70321  0.94634  0.61716  Biso   1.000  O
  O61      1.0000 0.36849  0.74611  0.18987  Biso   1.000  O
  O62      1.0000 0.86848  0.74611  0.18987  Biso   1.000  O
  O63      1.0000 0.44696  0.72716  0.12988  Biso   1.000  O
  O64      1.0000 0.94695  0.72716  0.12988  Biso   1.000  O
  O65      1.0000 0.14389  0.97687  0.16121  Biso   1.000  O
  O66      1.0000 0.64388  0.97687  0.16121  Biso   1.000  O
  O67      1.0000 0.15665  0.30475  0.02697  Biso   1.000  O
  O68      1.0000 0.65665  0.30474  0.02697  Biso   1.000  O
  O69      1.0000 0.37157  0.28874  0.90580  Biso   1.000  O
  O70      1.0000 0.87156  0.28874  0.90580  Biso   1.000  O
  O71      1.0000 0.44006  0.41140  0.93129  Biso   1.000  O
  O72      1.0000 0.94005  0.41140  0.93130  Biso   1.000  O
  O73      1.0000 0.40967  0.53101  0.09377  Biso   1.000  O
  O74      1.0000 0.90967  0.53101  0.09377  Biso   1.000  O
  O75      1.0000 0.39383  0.03859  0.28729  Biso   1.000  O
  O76      1.0000 0.89383  0.03859  0.28729  Biso   1.000  O
  O77      1.0000 0.00948  0.06973  0.31039  Biso   1.000  O
  O78      1.0000 0.50947  0.06974  0.31039  Biso   1.000  O
  O79      1.0000 0.29605  0.55155  0.11862  Biso   1.000  O
  O80      1.0000 0.79604  0.55155  0.11862  Biso   1.000  O
  O81      1.0000 0.23752  0.98320  0.26135  Biso   1.000  O
