data_image0
_cell_length_a       14.584
_cell_length_b       18.82
_cell_length_c       20.519
_cell_angle_alpha    106.983
_cell_angle_beta     90
_cell_angle_gamma    90

_symmetry_space_group_name_H-M    "P 1"
_symmetry_int_tables_number       1

loop_
  _symmetry_equiv_pos_as_xyz
  'x, y, z'

loop_
  _atom_site_label
  _atom_site_occupancy
  _atom_site_fract_x
  _atom_site_fract_y
  _atom_site_fract_z
  _atom_site_thermal_displace_type
  _atom_site_B_iso_or_equiv
  _atom_site_type_symbol
  Zn1      1.0000 0.32232  0.50066  0.99460  Biso   1.000  Zn
  Zn2      1.0000 0.81739  0.48949  0.98623  Biso   1.000  Zn
  Zn3      1.0000 0.32525  0.97529  0.52924  Biso   1.000  Zn
  Zn4      1.0000 0.81992  0.96551  0.52121  Biso   1.000  Zn
  Zn5      1.0000 0.17592  0.48896  0.02543  Biso   1.000  Zn
  Zn6      1.0000 0.67092  0.47771  0.01700  Biso   1.000  Zn
  Zn7      1.0000 0.17328  0.01223  0.48840  Biso   1.000  Zn
  Zn8      1.0000 0.66780  0.00285  0.48131  Biso   1.000  Zn
  H1       1.0000 0.46919  0.59267  0.16666  Biso   1.000  H
  H2       1.0000 0.00000  0.60284  0.16058  Biso   1.000  H
  H3       1.0000 0.07311  0.62228  0.27795  Biso   1.000  H
  H4       1.0000 0.54527  0.61424  0.27836  Biso   1.000  H
  H5       1.0000 0.31093  0.51937  0.35095  Biso   1.000  H
  H6       1.0000 0.81080  0.52996  0.32905  Biso   1.000  H
  H7       1.0000 0.23564  0.50046  0.24033  Biso   1.000  H
  H8       1.0000 0.75437  0.51450  0.21282  Biso   1.000  H
  H9       1.0000 0.43316  0.71550  0.38250  Biso   1.000  H
  H10      1.0000 0.90360  0.71786  0.37782  Biso   1.000  H
  H11      1.0000 0.97449  0.84581  0.41294  Biso   1.000  H
  H12      1.0000 0.51493  0.83556  0.41981  Biso   1.000  H
  H13      1.0000 0.22436  0.76704  0.47915  Biso   1.000  H
  H14      1.0000 0.74039  0.73021  0.48938  Biso   1.000  H
  H15      1.0000 0.16407  0.63979  0.44685  Biso   1.000  H
  H16      1.0000 0.65915  0.61081  0.45473  Biso   1.000  H
  H17      1.0000 0.51142  0.90969  0.34406  Biso   1.000  H
  H18      1.0000 0.96562  0.92532  0.34036  Biso   1.000  H
  H19      1.0000 0.05260  0.90402  0.22889  Biso   1.000  H
  H20      1.0000 0.56694  0.89048  0.22665  Biso   1.000  H
  H21      1.0000 0.31438  0.98200  0.17591  Biso   1.000  H
  H22      1.0000 0.80679  0.99665  0.15516  Biso   1.000  H
  H23      1.0000 0.25855  0.99753  0.29230  Biso   1.000  H
  H24      1.0000 0.73121  0.00000  0.26569  Biso   1.000  H
  H25      1.0000 0.40839  0.79608  0.12607  Biso   1.000  H
  H26      1.0000 0.92854  0.80255  0.12503  Biso   1.000  H
  H27      1.0000 0.01846  0.68145  0.08691  Biso   1.000  H
  H28      1.0000 0.46896  0.66820  0.09078  Biso   1.000  H
  H29      1.0000 0.24523  0.78422  0.01618  Biso   1.000  H
  H30      1.0000 0.71929  0.74752  0.02577  Biso   1.000  H
  H31      1.0000 0.16632  0.90467  0.05161  Biso   1.000  H
  H32      1.0000 0.65881  0.87501  0.05852  Biso   1.000  H
  H33      1.0000 0.98834  0.37339  0.84978  Biso   1.000  H
  H34      1.0000 0.52438  0.38671  0.84513  Biso   1.000  H
  H35      1.0000 0.44832  0.36508  0.73340  Biso   1.000  H
  H36      1.0000 0.92280  0.35308  0.73206  Biso   1.000  H
  H37      1.0000 0.18570  0.44489  0.68138  Biso   1.000  H
  H38      1.0000 0.68479  0.45620  0.65960  Biso   1.000  H
  H39      1.0000 0.24101  0.46151  0.79804  Biso   1.000  H
  H40      1.0000 0.75999  0.47518  0.77032  Biso   1.000  H
  H41      1.0000 0.09060  0.25788  0.63174  Biso   1.000  H
  H42      1.0000 0.56077  0.26256  0.62935  Biso   1.000  H
  H43      1.0000 0.47973  0.14222  0.59103  Biso   1.000  H
  H44      1.0000 0.00000  0.13039  0.59640  Biso   1.000  H
  H45      1.0000 0.25504  0.24718  0.52028  Biso   1.000  H
  H46      1.0000 0.76903  0.21143  0.53141  Biso   1.000  H
  H47      1.0000 0.33544  0.36701  0.55615  Biso   1.000  H
  H48      1.0000 0.83100  0.33839  0.56383  Biso   1.000  H
  H49      1.0000 0.02684  0.05399  0.66925  Biso   1.000  H
  H50      1.0000 0.47770  0.06422  0.66413  Biso   1.000  H
  H51      1.0000 0.42145  0.08360  0.78140  Biso   1.000  H
  H52      1.0000 0.93951  0.07504  0.78063  Biso   1.000  H
  H53      1.0000 0.18521  0.98240  0.85445  Biso   1.000  H
  H54      1.0000 0.67436  0.99344  0.83323  Biso   1.000  H
  H55      1.0000 0.26122  0.96406  0.74417  Biso   1.000  H
  H56      1.0000 0.73077  0.97770  0.71711  Biso   1.000  H
  H57      1.0000 0.06329  0.17606  0.88525  Biso   1.000  H
  H58      1.0000 0.58124  0.18003  0.88027  Biso   1.000  H
  H59      1.0000 0.52255  0.30845  0.91625  Biso   1.000  H
  H60      1.0000 0.97353  0.29715  0.92470  Biso   1.000  H
  H61      1.0000 0.27288  0.23152  0.98447  Biso   1.000  H
  H62      1.0000 0.74707  0.19335  0.99476  Biso   1.000  H
  H63      1.0000 0.33178  0.10369  0.95161  Biso   1.000  H
  H64      1.0000 0.82599  0.07283  0.95807  Biso   1.000  H
  C1       1.0000 0.29991  0.53518  0.12953  Biso   1.000  C
  C2       1.0000 0.83869  0.54649  0.10915  Biso   1.000  C
  C3       1.0000 0.34623  0.54663  0.19673  Biso   1.000  C
  C4       1.0000 0.87599  0.55816  0.17924  Biso   1.000  C
  C5       1.0000 0.43425  0.57806  0.20784  Biso   1.000  C
  C6       1.0000 0.96346  0.58791  0.19789  Biso   1.000  C
  C7       1.0000 0.47709  0.58961  0.27071  Biso   1.000  C
  C8       1.0000 0.99507  0.59805  0.26394  Biso   1.000  C
  C9       1.0000 0.43351  0.56993  0.32400  Biso   1.000  C
  C10      1.0000 0.94113  0.57787  0.31256  Biso   1.000  C
  C11      1.0000 0.34640  0.53714  0.31194  Biso   1.000  C
  C12      1.0000 0.85439  0.54705  0.29337  Biso   1.000  C
  C13      1.0000 0.30322  0.52589  0.24920  Biso   1.000  C
  C14      1.0000 0.82211  0.53793  0.22756  Biso   1.000  C
  C15      1.0000 0.48617  0.57969  0.39153  Biso   1.000  C
  C16      1.0000 0.98254  0.58978  0.38418  Biso   1.000  C
  C17      1.0000 0.41985  0.58062  0.45170  Biso   1.000  C
  C18      1.0000 0.91185  0.58409  0.43974  Biso   1.000  C
  C19      1.0000 0.06489  0.52622  0.37702  Biso   1.000  C
  C20      1.0000 0.55043  0.51039  0.37841  Biso   1.000  C
  C21      1.0000 0.03469  0.66869  0.40866  Biso   1.000  C
  C22      1.0000 0.54070  0.65326  0.41385  Biso   1.000  C
  C23      1.0000 0.50076  0.71801  0.40562  Biso   1.000  C
  C24      1.0000 0.97165  0.72817  0.40043  Biso   1.000  C
  C25      1.0000 0.01614  0.80048  0.41984  Biso   1.000  C
  C26      1.0000 0.54688  0.78566  0.42605  Biso   1.000  C
  C27      1.0000 0.10439  0.81480  0.44759  Biso   1.000  C
  C28      1.0000 0.63466  0.79009  0.45508  Biso   1.000  C
  C29      1.0000 0.15615  0.75580  0.45704  Biso   1.000  C
  C30      1.0000 0.67333  0.72639  0.46546  Biso   1.000  C
  C31      1.0000 0.12168  0.68370  0.43834  Biso   1.000  C
  C32      1.0000 0.62683  0.65884  0.44537  Biso   1.000  C
  C33      1.0000 0.14595  0.89069  0.46711  Biso   1.000  C
  C34      1.0000 0.68579  0.86196  0.47395  Biso   1.000  C
  C35      1.0000 0.34398  0.96676  0.39618  Biso   1.000  C
  C36      1.0000 0.79598  0.98170  0.37708  Biso   1.000  C
  C37      1.0000 0.38059  0.95426  0.32576  Biso   1.000  C
  C38      1.0000 0.84228  0.97047  0.30987  Biso   1.000  C
  C39      1.0000 0.46797  0.92448  0.30685  Biso   1.000  C
  C40      1.0000 0.93063  0.93961  0.29903  Biso   1.000  C
  C41      1.0000 0.49930  0.91446  0.24075  Biso   1.000  C
  C42      1.0000 0.97370  0.92824  0.23630  Biso   1.000  C
  C43      1.0000 0.44515  0.93473  0.19227  Biso   1.000  C
  C44      1.0000 0.93012  0.94752  0.18277  Biso   1.000  C
  C45      1.0000 0.35820  0.96501  0.21152  Biso   1.000  C
  C46      1.0000 0.84252  0.97948  0.19442  Biso   1.000  C
  C47      1.0000 0.32626  0.97413  0.27744  Biso   1.000  C
  C48      1.0000 0.79912  0.99062  0.25712  Biso   1.000  C
  C49      1.0000 0.48722  0.92408  0.12096  Biso   1.000  C
  C50      1.0000 0.98350  0.93778  0.11555  Biso   1.000  C
  C51      1.0000 0.41747  0.93050  0.06516  Biso   1.000  C
  C52      1.0000 0.91865  0.93766  0.05495  Biso   1.000  C
  C53      1.0000 0.05956  0.00000  0.12918  Biso   1.000  C
  C54      1.0000 0.55802  0.98870  0.12984  Biso   1.000  C
  C55      1.0000 0.04740  0.86357  0.09311  Biso   1.000  C
  C56      1.0000 0.52930  0.84550  0.09600  Biso   1.000  C
  C57      1.0000 0.47656  0.78588  0.10369  Biso   1.000  C
  C58      1.0000 0.99595  0.79925  0.10148  Biso   1.000  C
  C59      1.0000 0.05121  0.73100  0.08057  Biso   1.000  C
  C60      1.0000 0.51062  0.71365  0.08417  Biso   1.000  C
  C61      1.0000 0.13867  0.72551  0.05090  Biso   1.000  C
  C62      1.0000 0.59908  0.69958  0.05680  Biso   1.000  C
  C63      1.0000 0.17841  0.78884  0.04052  Biso   1.000  C
  C64      1.0000 0.65097  0.75869  0.04768  Biso   1.000  C
  C65      1.0000 0.13325  0.85698  0.06107  Biso   1.000  C
  C66      1.0000 0.61645  0.83081  0.06658  Biso   1.000  C
  C67      1.0000 0.18851  0.65300  0.03149  Biso   1.000  C
  C68      1.0000 0.64045  0.62366  0.03757  Biso   1.000  C
  C69      1.0000 0.15532  0.43129  0.90207  Biso   1.000  C
  C70      1.0000 0.69431  0.44250  0.88178  Biso   1.000  C
  C71      1.0000 0.11901  0.41819  0.83149  Biso   1.000  C
  C72      1.0000 0.64829  0.43090  0.81447  Biso   1.000  C
  C73      1.0000 0.03183  0.38801  0.81250  Biso   1.000  C
  C74      1.0000 0.55975  0.40045  0.80368  Biso   1.000  C
  C75      1.0000 0.00081  0.37733  0.74621  Biso   1.000  C
  C76      1.0000 0.51693  0.38892  0.74084  Biso   1.000  C
  C77      1.0000 0.05506  0.39731  0.69765  Biso   1.000  C
  C78      1.0000 0.56105  0.40767  0.68728  Biso   1.000  C
  C79      1.0000 0.14180  0.42804  0.71702  Biso   1.000  C
  C80      1.0000 0.64883  0.43929  0.69890  Biso   1.000  C
  C81      1.0000 0.17344  0.43780  0.78310  Biso   1.000  C
  C82      1.0000 0.69198  0.45054  0.76167  Biso   1.000  C
  C83      1.0000 0.01321  0.38630  0.62618  Biso   1.000  C
  C84      1.0000 0.50803  0.39824  0.62007  Biso   1.000  C
  C85      1.0000 0.08392  0.39183  0.57061  Biso   1.000  C
  C86      1.0000 0.57368  0.39754  0.55955  Biso   1.000  C
  C87      1.0000 0.44393  0.46782  0.63339  Biso   1.000  C
  C88      1.0000 0.93258  0.45110  0.63456  Biso   1.000  C
  C89      1.0000 0.45347  0.32468  0.59761  Biso   1.000  C
  C90      1.0000 0.95995  0.30803  0.60147  Biso   1.000  C
  C91      1.0000 0.02243  0.24811  0.60931  Biso   1.000  C
  C92      1.0000 0.49342  0.25992  0.60583  Biso   1.000  C
  C93      1.0000 0.44773  0.19209  0.58479  Biso   1.000  C
  C94      1.0000 0.97711  0.17614  0.58984  Biso   1.000  C
  C95      1.0000 0.36036  0.18746  0.55509  Biso   1.000  C
  C96      1.0000 0.88858  0.16274  0.56251  Biso   1.000  C
  C97      1.0000 0.32171  0.25119  0.54475  Biso   1.000  C
  C98      1.0000 0.83740  0.22214  0.55329  Biso   1.000  C
  C99      1.0000 0.36772  0.31895  0.56552  Biso   1.000  C
  C100     1.0000 0.87277  0.29396  0.57203  Biso   1.000  C
  C101     1.0000 0.30948  0.11541  0.53562  Biso   1.000  C
  C102     1.0000 0.84629  0.08724  0.54336  Biso   1.000  C
  C103     1.0000 0.19677  0.99760  0.63292  Biso   1.000  C
  C104     1.0000 0.64658  0.00909  0.61311  Biso   1.000  C
  C105     1.0000 0.15017  0.00903  0.69997  Biso   1.000  C
  C106     1.0000 0.60881  0.02050  0.68309  Biso   1.000  C
  C107     1.0000 0.06176  0.03976  0.71064  Biso   1.000  C
  C108     1.0000 0.52101  0.04967  0.70155  Biso   1.000  C
  C109     1.0000 0.01850  0.05097  0.77328  Biso   1.000  C
  C110     1.0000 0.48926  0.05980  0.76761  Biso   1.000  C
  C111     1.0000 0.06200  0.03155  0.82674  Biso   1.000  C
  C112     1.0000 0.54344  0.04034  0.81649  Biso   1.000  C
  C113     1.0000 0.14966  0.99974  0.81524  Biso   1.000  C
  C114     1.0000 0.63049  0.01005  0.79745  Biso   1.000  C
  C115     1.0000 0.19328  0.98885  0.75270  Biso   1.000  C
  C116     1.0000 0.66282  0.00079  0.73163  Biso   1.000  C
  C117     1.0000 0.00854  0.04055  0.89375  Biso   1.000  C
  C118     1.0000 0.50241  0.05292  0.88843  Biso   1.000  C
  C119     1.0000 0.07396  0.04047  0.95423  Biso   1.000  C
  C120     1.0000 0.57395  0.04790  0.94355  Biso   1.000  C
  C121     1.0000 0.43148  0.98913  0.88250  Biso   1.000  C
  C122     1.0000 0.93258  0.97169  0.87920  Biso   1.000  C
  C123     1.0000 0.46092  0.13181  0.91251  Biso   1.000  C
  C124     1.0000 0.94461  0.11461  0.91681  Biso   1.000  C
  C125     1.0000 0.99601  0.17916  0.90894  Biso   1.000  C
  C126     1.0000 0.51366  0.19087  0.90357  Biso   1.000  C
  C127     1.0000 0.48057  0.26341  0.92337  Biso   1.000  C
  C128     1.0000 0.94086  0.24738  0.93060  Biso   1.000  C
  C129     1.0000 0.39291  0.27837  0.95202  Biso   1.000  C
  C130     1.0000 0.85357  0.25258  0.96049  Biso   1.000  C
  C131     1.0000 0.34069  0.21974  0.96176  Biso   1.000  C
  C132     1.0000 0.81382  0.18897  0.97032  Biso   1.000  C
  C133     1.0000 0.37434  0.14735  0.94276  Biso   1.000  C
  C134     1.0000 0.85892  0.12083  0.94904  Biso   1.000  C
  C135     1.0000 0.35264  0.35469  0.97223  Biso   1.000  C
  C136     1.0000 0.80404  0.32522  0.98049  Biso   1.000  C
  O1       1.0000 0.34323  0.55792  0.08550  Biso   1.000  O
  O2       1.0000 0.88705  0.56673  0.06504  Biso   1.000  O
  O3       1.0000 0.22061  0.50386  0.12032  Biso   1.000  O
  O4       1.0000 0.75994  0.51638  0.09751  Biso   1.000  O
  O5       1.0000 0.22585  0.89622  0.49305  Biso   1.000  O
  O6       1.0000 0.76684  0.86387  0.49932  Biso   1.000  O
  O7       1.0000 0.10050  0.94517  0.45689  Biso   1.000  O
  O8       1.0000 0.64490  0.91699  0.46275  Biso   1.000  O
  O9       1.0000 0.39165  0.94570  0.44009  Biso   1.000  O
  O10      1.0000 0.83903  0.95838  0.42084  Biso   1.000  O
  O11      1.0000 0.26630  0.99864  0.40819  Biso   1.000  O
  O12      1.0000 0.71695  0.00000  0.38661  Biso   1.000  O
  O13      1.0000 0.26975  0.65047  0.00637  Biso   1.000  O
  O14      1.0000 0.72059  0.61787  0.01204  Biso   1.000  O
  O15      1.0000 0.14625  0.59821  0.04215  Biso   1.000  O
  O16      1.0000 0.59435  0.56944  0.04773  Biso   1.000  O
  O17      1.0000 0.10701  0.41094  0.94613  Biso   1.000  O
  O18      1.0000 0.65072  0.41985  0.92573  Biso   1.000  O
  O19      1.0000 0.23324  0.46276  0.91411  Biso   1.000  O
  O20      1.0000 0.77356  0.47392  0.89115  Biso   1.000  O
  O21      1.0000 0.22833  0.11360  0.51053  Biso   1.000  O
  O22      1.0000 0.76575  0.08232  0.51860  Biso   1.000  O
  O23      1.0000 0.35093  0.06024  0.54623  Biso   1.000  O
  O24      1.0000 0.89201  0.03248  0.55279  Biso   1.000  O
  O25      1.0000 0.15403  0.02052  0.58879  Biso   1.000  O
  O26      1.0000 0.59872  0.02987  0.56908  Biso   1.000  O
  O27      1.0000 0.27592  0.96593  0.62395  Biso   1.000  O
  O28      1.0000 0.72520  0.97873  0.60153  Biso   1.000  O
  O29      1.0000 0.27304  0.36092  0.99871  Biso   1.000  O
  O30      1.0000 0.72297  0.32788  0.00000  Biso   1.000  O
  O31      1.0000 0.39884  0.40885  0.96206  Biso   1.000  O
  O32      1.0000 0.84637  0.38002  0.96996  Biso   1.000  O
  F1       1.0000 0.38074  0.51336  0.44577  Biso   1.000  F
  F2       1.0000 0.87964  0.51418  0.43139  Biso   1.000  F
  F3       1.0000 0.46266  0.60161  0.51281  Biso   1.000  F
  F4       1.0000 0.94947  0.60756  0.50271  Biso   1.000  F
  F5       1.0000 0.35038  0.62998  0.45433  Biso   1.000  F
  F6       1.0000 0.83752  0.62792  0.43994  Biso   1.000  F
  F7       1.0000 0.09869  0.52250  0.43765  Biso   1.000  F
  F8       1.0000 0.58889  0.50224  0.43625  Biso   1.000  F
  F9       1.0000 0.13788  0.53582  0.33911  Biso   1.000  F
  F10      1.0000 0.62069  0.51579  0.33621  Biso   1.000  F
  F11      1.0000 0.02876  0.45876  0.34486  Biso   1.000  F
  F12      1.0000 0.50472  0.44675  0.34781  Biso   1.000  F
  F13      1.0000 0.38356  0.00000  0.07575  Biso   1.000  F
  F14      1.0000 0.87840  0.00000  0.06167  Biso   1.000  F
  F15      1.0000 0.45541  0.86198  0.00000  Biso   1.000  F
  F16      1.0000 0.96193  0.87045  0.00000  Biso   1.000  F
  F17      1.0000 0.34439  0.88461  0.06205  Biso   1.000  F
  F18      1.0000 0.85009  0.88716  0.05026  Biso   1.000  F
  F19      1.0000 0.09806  0.00000  0.07159  Biso   1.000  F
  F20      1.0000 0.59239  0.99472  0.07011  Biso   1.000  F
  F21      1.0000 0.12920  0.99911  0.17119  Biso   1.000  F
  F22      1.0000 0.63083  0.97917  0.16808  Biso   1.000  F
  F23      1.0000 0.01108  0.04673  0.16010  Biso   1.000  F
  F24      1.0000 0.51445  0.03100  0.16266  Biso   1.000  F
  F25      1.0000 0.11797  0.46143  0.58057  Biso   1.000  F
  F26      1.0000 0.61264  0.46503  0.56616  Biso   1.000  F
  F27      1.0000 0.04687  0.37084  0.50738  Biso   1.000  F
  F28      1.0000 0.53020  0.37723  0.49878  Biso   1.000  F
  F29      1.0000 0.15629  0.34580  0.56936  Biso   1.000  F
  F30      1.0000 0.64303  0.34770  0.55534  Biso   1.000  F
  F31      1.0000 0.40725  0.47614  0.57510  Biso   1.000  F
  F32      1.0000 0.89848  0.45621  0.57447  Biso   1.000  F
  F33      1.0000 0.37289  0.46260  0.67522  Biso   1.000  F
  F34      1.0000 0.85940  0.44274  0.67289  Biso   1.000  F
  F35      1.0000 0.48900  0.53157  0.66443  Biso   1.000  F
  F36      1.0000 0.97165  0.51734  0.66703  Biso   1.000  F
  F37      1.0000 0.11443  0.97349  0.94748  Biso   1.000  F
  F38      1.0000 0.60952  0.97866  0.93348  Biso   1.000  F
  F39      1.0000 0.03114  0.10791  0.00557  Biso   1.000  F
  F40      1.0000 0.53782  0.11686  0.99744  Biso   1.000  F
  F41      1.0000 0.14262  0.09097  0.95882  Biso   1.000  F
  F42      1.0000 0.64568  0.09440  0.94461  Biso   1.000  F
  F43      1.0000 0.39719  0.98646  0.94334  Biso   1.000  F
  F44      1.0000 0.89539  0.96126  0.93642  Biso   1.000  F
  F45      1.0000 0.35844  0.99667  0.84369  Biso   1.000  F
  F46      1.0000 0.86152  0.97959  0.83836  Biso   1.000  F
  F47      1.0000 0.47492  0.94616  0.85209  Biso   1.000  F
  F48      1.0000 0.98170  0.93212  0.84648  Biso   1.000  F
  O33      1.0000 0.57028  0.41068  0.02949  Biso   1.000  O
