data_image0
_cell_length_a       22.762
_cell_length_b       13.56
_cell_length_c       19.943
_cell_angle_alpha    89.843
_cell_angle_beta     90.071
_cell_angle_gamma    90.243

_symmetry_space_group_name_H-M    "P 1"
_symmetry_int_tables_number       1

loop_
  _symmetry_equiv_pos_as_xyz
  'x, y, z'

loop_
  _atom_site_label
  _atom_site_occupancy
  _atom_site_fract_x
  _atom_site_fract_y
  _atom_site_fract_z
  _atom_site_thermal_displace_type
  _atom_site_B_iso_or_equiv
  _atom_site_type_symbol
  Zn1      1.0000 0.35529  0.99197  0.45578  Biso   1.000  Zn
  Zn2      1.0000 0.85530  0.99197  0.45578  Biso   1.000  Zn
  Zn3      1.0000 0.44489  0.07048  0.36118  Biso   1.000  Zn
  Zn4      1.0000 0.94490  0.07048  0.36118  Biso   1.000  Zn
  Zn5      1.0000 0.39479  0.00804  0.95583  Biso   1.000  Zn
  Zn6      1.0000 0.89480  0.00804  0.95583  Biso   1.000  Zn
  Zn7      1.0000 0.30481  0.93229  0.86102  Biso   1.000  Zn
  Zn8      1.0000 0.80482  0.93229  0.86102  Biso   1.000  Zn
  Zn9      1.0000 0.14246  0.49207  0.04127  Biso   1.000  Zn
  Zn10     1.0000 0.64247  0.49207  0.04127  Biso   1.000  Zn
  Zn11     1.0000 0.05292  0.56712  0.13605  Biso   1.000  Zn
  Zn12     1.0000 0.55293  0.56712  0.13605  Biso   1.000  Zn
  Zn13     1.0000 0.10687  0.50779  0.54152  Biso   1.000  Zn
  Zn14     1.0000 0.60689  0.50779  0.54152  Biso   1.000  Zn
  Zn15     1.0000 0.19512  0.42945  0.63627  Biso   1.000  Zn
  Zn16     1.0000 0.69514  0.42945  0.63627  Biso   1.000  Zn
  H1       1.0000 0.32478  0.27308  0.28123  Biso   1.000  H
  H2       1.0000 0.82479  0.27308  0.28123  Biso   1.000  H
  H3       1.0000 0.25592  0.25797  0.48239  Biso   1.000  H
  H4       1.0000 0.75594  0.25797  0.48239  Biso   1.000  H
  H5       1.0000 0.21158  0.50357  0.35536  Biso   1.000  H
  H6       1.0000 0.71159  0.50357  0.35536  Biso   1.000  H
  H7       1.0000 0.19749  0.50892  0.23746  Biso   1.000  H
  H8       1.0000 0.69750  0.50892  0.23746  Biso   1.000  H
  H9       1.0000 0.25593  0.53511  0.17857  Biso   1.000  H
  H10      1.0000 0.75594  0.53511  0.17858  Biso   1.000  H
  H11      1.0000 0.35610  0.54465  0.20080  Biso   1.000  H
  H12      1.0000 0.85611  0.54465  0.20080  Biso   1.000  H
  H13      1.0000 0.46255  0.78633  0.26957  Biso   1.000  H
  H14      1.0000 0.96257  0.78633  0.26958  Biso   1.000  H
  H15      1.0000 0.28301  0.75820  0.33751  Biso   1.000  H
  H16      1.0000 0.78302  0.75820  0.33751  Biso   1.000  H
  H17      1.0000 0.42467  0.72864  0.78023  Biso   1.000  H
  H18      1.0000 0.92469  0.72864  0.78022  Biso   1.000  H
  H19      1.0000 0.49240  0.74036  0.98210  Biso   1.000  H
  H20      1.0000 0.99241  0.74037  0.98210  Biso   1.000  H
  H21      1.0000 0.03705  0.49645  0.85475  Biso   1.000  H
  H22      1.0000 0.53705  0.49644  0.85475  Biso   1.000  H
  H23      1.0000 0.05231  0.49444  0.73623  Biso   1.000  H
  H24      1.0000 0.55232  0.49445  0.73623  Biso   1.000  H
  H25      1.0000 0.99400  0.46872  0.67700  Biso   1.000  H
  H26      1.0000 0.49401  0.46873  0.67700  Biso   1.000  H
  H27      1.0000 0.39394  0.45510  0.69833  Biso   1.000  H
  H28      1.0000 0.89395  0.45511  0.69834  Biso   1.000  H
  H29      1.0000 0.28846  0.21376  0.77014  Biso   1.000  H
  H30      1.0000 0.78847  0.21376  0.77014  Biso   1.000  H
  H31      1.0000 0.46830  0.24405  0.83703  Biso   1.000  H
  H32      1.0000 0.96831  0.24406  0.83704  Biso   1.000  H
  H33      1.0000 0.17366  0.77295  0.21539  Biso   1.000  H
  H34      1.0000 0.67367  0.77294  0.21539  Biso   1.000  H
  H35      1.0000 0.24287  0.75925  0.01444  Biso   1.000  H
  H36      1.0000 0.74289  0.75925  0.01444  Biso   1.000  H
  H37      1.0000 0.28873  0.00000  0.14173  Biso   1.000  H
  H38      1.0000 0.78874  0.00000  0.14173  Biso   1.000  H
  H39      1.0000 0.30214  0.00886  0.25936  Biso   1.000  H
  H40      1.0000 0.80216  0.00887  0.25936  Biso   1.000  H
  H41      1.0000 0.24380  0.03367  0.31835  Biso   1.000  H
  H42      1.0000 0.74382  0.03367  0.31835  Biso   1.000  H
  H43      1.0000 0.14383  0.04483  0.29788  Biso   1.000  H
  H44      1.0000 0.64384  0.04483  0.29788  Biso   1.000  H
  H45      1.0000 0.03798  0.28561  0.22801  Biso   1.000  H
  H46      1.0000 0.53799  0.28561  0.22801  Biso   1.000  H
  H47      1.0000 0.21692  0.25734  0.15879  Biso   1.000  H
  H48      1.0000 0.71693  0.25734  0.15879  Biso   1.000  H
  H49      1.0000 0.07521  0.22635  0.71597  Biso   1.000  H
  H50      1.0000 0.57523  0.22635  0.71597  Biso   1.000  H
  H51      1.0000 0.00542  0.24150  0.51509  Biso   1.000  H
  H52      1.0000 0.50543  0.24150  0.51509  Biso   1.000  H
  H53      1.0000 0.46164  0.99464  0.64171  Biso   1.000  H
  H54      1.0000 0.96165  0.99464  0.64171  Biso   1.000  H
  H55      1.0000 0.44803  0.98866  0.75951  Biso   1.000  H
  H56      1.0000 0.94804  0.98867  0.75951  Biso   1.000  H
  H57      1.0000 0.50654  0.96341  0.81846  Biso   1.000  H
  H58      1.0000 0.00000  0.96341  0.81846  Biso   1.000  H
  H59      1.0000 0.10636  0.95337  0.79761  Biso   1.000  H
  H60      1.0000 0.60637  0.95336  0.79761  Biso   1.000  H
  H61      1.0000 0.21238  0.71284  0.72883  Biso   1.000  H
  H62      1.0000 0.71239  0.71284  0.72882  Biso   1.000  H
  H63      1.0000 0.03327  0.74062  0.65935  Biso   1.000  H
  H64      1.0000 0.53328  0.74062  0.65934  Biso   1.000  H
  C1       1.0000 0.26852  0.39317  0.31078  Biso   1.000  C
  C2       1.0000 0.76853  0.39317  0.31078  Biso   1.000  C
  C3       1.0000 0.29790  0.30394  0.32104  Biso   1.000  C
  C4       1.0000 0.79791  0.30394  0.32104  Biso   1.000  C
  C5       1.0000 0.29245  0.25457  0.38235  Biso   1.000  C
  C6       1.0000 0.79246  0.25457  0.38235  Biso   1.000  C
  C7       1.0000 0.25916  0.29521  0.43422  Biso   1.000  C
  C8       1.0000 0.75918  0.29522  0.43423  Biso   1.000  C
  C9       1.0000 0.23043  0.38465  0.42372  Biso   1.000  C
  C10      1.0000 0.73045  0.38465  0.42372  Biso   1.000  C
  C11      1.0000 0.23408  0.43366  0.36169  Biso   1.000  C
  C12      1.0000 0.73409  0.43366  0.36169  Biso   1.000  C
  C13      1.0000 0.32321  0.15925  0.39317  Biso   1.000  C
  C14      1.0000 0.82322  0.15925  0.39317  Biso   1.000  C
  C15      1.0000 0.19601  0.42743  0.47967  Biso   1.000  C
  C16      1.0000 0.69602  0.42743  0.47967  Biso   1.000  C
  C17      1.0000 0.24490  0.52133  0.23139  Biso   1.000  C
  C18      1.0000 0.74491  0.52133  0.23139  Biso   1.000  C
  C19      1.0000 0.31248  0.64784  0.26797  Biso   1.000  C
  C20      1.0000 0.81249  0.64784  0.26797  Biso   1.000  C
  C21      1.0000 0.35927  0.61207  0.23001  Biso   1.000  C
  C22      1.0000 0.85928  0.61207  0.23001  Biso   1.000  C
  C23      1.0000 0.41330  0.66242  0.23115  Biso   1.000  C
  C24      1.0000 0.91331  0.66242  0.23115  Biso   1.000  C
  C25      1.0000 0.42043  0.74819  0.26895  Biso   1.000  C
  C26      1.0000 0.92044  0.74819  0.26895  Biso   1.000  C
  C27      1.0000 0.37334  0.78251  0.30745  Biso   1.000  C
  C28      1.0000 0.87335  0.78251  0.30746  Biso   1.000  C
  C29      1.0000 0.31955  0.73216  0.30732  Biso   1.000  C
  C30      1.0000 0.81956  0.73215  0.30732  Biso   1.000  C
  C31      1.0000 0.46399  0.62123  0.19313  Biso   1.000  C
  C32      1.0000 0.96400  0.62123  0.19313  Biso   1.000  C
  C33      1.0000 0.38097  0.87121  0.35029  Biso   1.000  C
  C34      1.0000 0.88098  0.87120  0.35030  Biso   1.000  C
  C35      1.0000 0.48060  0.60783  0.80998  Biso   1.000  C
  C36      1.0000 0.98061  0.60784  0.80997  Biso   1.000  C
  C37      1.0000 0.45126  0.69704  0.82023  Biso   1.000  C
  C38      1.0000 0.95127  0.69705  0.82023  Biso   1.000  C
  C39      1.0000 0.45645  0.74545  0.88177  Biso   1.000  C
  C40      1.0000 0.95647  0.74546  0.88176  Biso   1.000  C
  C41      1.0000 0.48935  0.70381  0.93382  Biso   1.000  C
  C42      1.0000 0.98936  0.70382  0.93382  Biso   1.000  C
  C43      1.0000 0.01792  0.61438  0.92337  Biso   1.000  C
  C44      1.0000 0.51793  0.61437  0.92337  Biso   1.000  C
  C45      1.0000 0.01462  0.56635  0.86114  Biso   1.000  C
  C46      1.0000 0.51462  0.56635  0.86114  Biso   1.000  C
  C47      1.0000 0.42603  0.84090  0.89284  Biso   1.000  C
  C48      1.0000 0.92604  0.84090  0.89284  Biso   1.000  C
  C49      1.0000 0.05201  0.57109  0.97970  Biso   1.000  C
  C50      1.0000 0.55202  0.57108  0.97970  Biso   1.000  C
  C51      1.0000 0.00497  0.48147  0.72994  Biso   1.000  C
  C52      1.0000 0.50498  0.48147  0.72993  Biso   1.000  C
  C53      1.0000 0.43811  0.35327  0.76649  Biso   1.000  C
  C54      1.0000 0.93812  0.35328  0.76650  Biso   1.000  C
  C55      1.0000 0.39105  0.38813  0.72830  Biso   1.000  C
  C56      1.0000 0.89106  0.38814  0.72831  Biso   1.000  C
  C57      1.0000 0.33714  0.33744  0.73016  Biso   1.000  C
  C58      1.0000 0.83715  0.33744  0.73016  Biso   1.000  C
  C59      1.0000 0.33046  0.25222  0.76890  Biso   1.000  C
  C60      1.0000 0.83047  0.25222  0.76890  Biso   1.000  C
  C61      1.0000 0.37785  0.21869  0.80757  Biso   1.000  C
  C62      1.0000 0.87786  0.21869  0.80757  Biso   1.000  C
  C63      1.0000 0.43152  0.26940  0.80671  Biso   1.000  C
  C64      1.0000 0.93153  0.26940  0.80672  Biso   1.000  C
  C65      1.0000 0.28614  0.37770  0.69177  Biso   1.000  C
  C66      1.0000 0.78615  0.37770  0.69177  Biso   1.000  C
  C67      1.0000 0.37046  0.13037  0.85108  Biso   1.000  C
  C68      1.0000 0.87047  0.13037  0.85108  Biso   1.000  C
  C69      1.0000 0.23087  0.89293  0.18604  Biso   1.000  C
  C70      1.0000 0.73088  0.89293  0.18604  Biso   1.000  C
  C71      1.0000 0.20086  0.80396  0.17566  Biso   1.000  C
  C72      1.0000 0.70088  0.80396  0.17566  Biso   1.000  C
  C73      1.0000 0.20605  0.75506  0.11436  Biso   1.000  C
  C74      1.0000 0.70606  0.75506  0.11436  Biso   1.000  C
  C75      1.0000 0.23978  0.79604  0.06262  Biso   1.000  C
  C76      1.0000 0.73980  0.79604  0.06262  Biso   1.000  C
  C77      1.0000 0.26920  0.88521  0.07323  Biso   1.000  C
  C78      1.0000 0.76921  0.88521  0.07323  Biso   1.000  C
  C79      1.0000 0.26573  0.93370  0.13526  Biso   1.000  C
  C80      1.0000 0.76574  0.93370  0.13526  Biso   1.000  C
  C81      1.0000 0.17466  0.65981  0.10351  Biso   1.000  C
  C82      1.0000 0.67467  0.65981  0.10351  Biso   1.000  C
  C83      1.0000 0.30412  0.92819  0.01730  Biso   1.000  C
  C84      1.0000 0.80413  0.92819  0.01730  Biso   1.000  C
  C85      1.0000 0.25475  0.02063  0.26549  Biso   1.000  C
  C86      1.0000 0.75476  0.02063  0.26549  Biso   1.000  C
  C87      1.0000 0.18742  0.14740  0.22939  Biso   1.000  C
  C88      1.0000 0.68744  0.14741  0.22939  Biso   1.000  C
  C89      1.0000 0.14075  0.11197  0.26815  Biso   1.000  C
  C90      1.0000 0.64076  0.11197  0.26815  Biso   1.000  C
  C91      1.0000 0.08694  0.16232  0.26713  Biso   1.000  C
  C92      1.0000 0.58695  0.16232  0.26713  Biso   1.000  C
  C93      1.0000 0.07994  0.24760  0.22864  Biso   1.000  C
  C94      1.0000 0.57995  0.24760  0.22864  Biso   1.000  C
  C95      1.0000 0.12690  0.28169  0.18948  Biso   1.000  C
  C96      1.0000 0.62691  0.28169  0.18948  Biso   1.000  C
  C97      1.0000 0.18048  0.23147  0.18951  Biso   1.000  C
  C98      1.0000 0.68049  0.23147  0.18951  Biso   1.000  C
  C99      1.0000 0.03613  0.12191  0.30589  Biso   1.000  C
  C100     1.0000 0.53614  0.12191  0.30589  Biso   1.000  C
  C101     1.0000 0.11898  0.36975  0.14601  Biso   1.000  C
  C102     1.0000 0.61899  0.36975  0.14601  Biso   1.000  C
  C103     1.0000 0.01878  0.10562  0.68632  Biso   1.000  C
  C104     1.0000 0.51880  0.10562  0.68632  Biso   1.000  C
  C105     1.0000 0.04813  0.19533  0.67618  Biso   1.000  C
  C106     1.0000 0.54815  0.19532  0.67617  Biso   1.000  C
  C107     1.0000 0.04247  0.24489  0.61496  Biso   1.000  C
  C108     1.0000 0.54248  0.24489  0.61496  Biso   1.000  C
  C109     1.0000 0.00885  0.20408  0.56316  Biso   1.000  C
  C110     1.0000 0.50886  0.20408  0.56316  Biso   1.000  C
  C111     1.0000 0.48010  0.11426  0.57357  Biso   1.000  C
  C112     1.0000 0.98011  0.11425  0.57357  Biso   1.000  C
  C113     1.0000 0.48410  0.06491  0.63544  Biso   1.000  C
  C114     1.0000 0.98411  0.06491  0.63544  Biso   1.000  C
  C115     1.0000 0.07342  0.34046  0.60407  Biso   1.000  C
  C116     1.0000 0.57343  0.34046  0.60407  Biso   1.000  C
  C117     1.0000 0.44512  0.07165  0.51772  Biso   1.000  C
  C118     1.0000 0.94513  0.07165  0.51772  Biso   1.000  C
  C119     1.0000 0.49544  0.97685  0.76561  Biso   1.000  C
  C120     1.0000 0.99544  0.97686  0.76561  Biso   1.000  C
  C121     1.0000 0.06273  0.85049  0.72964  Biso   1.000  C
  C122     1.0000 0.56274  0.85049  0.72964  Biso   1.000  C
  C123     1.0000 0.10945  0.88617  0.76821  Biso   1.000  C
  C124     1.0000 0.60946  0.88616  0.76821  Biso   1.000  C
  C125     1.0000 0.16335  0.83614  0.76737  Biso   1.000  C
  C126     1.0000 0.66336  0.83613  0.76737  Biso   1.000  C
  C127     1.0000 0.17037  0.75072  0.72932  Biso   1.000  C
  C128     1.0000 0.67038  0.75072  0.72931  Biso   1.000  C
  C129     1.0000 0.12337  0.71645  0.69024  Biso   1.000  C
  C130     1.0000 0.62338  0.71645  0.69024  Biso   1.000  C
  C131     1.0000 0.06972  0.76652  0.69005  Biso   1.000  C
  C132     1.0000 0.56973  0.76652  0.69005  Biso   1.000  C
  C133     1.0000 0.21419  0.87765  0.80560  Biso   1.000  C
  C134     1.0000 0.71420  0.87764  0.80560  Biso   1.000  C
  C135     1.0000 0.13110  0.62843  0.64696  Biso   1.000  C
  C136     1.0000 0.63111  0.62844  0.64695  Biso   1.000  C
  O1       1.0000 0.35999  0.12923  0.35016  Biso   1.000  O
  O2       1.0000 0.86000  0.12923  0.35016  Biso   1.000  O
  O3       1.0000 0.30950  0.11100  0.44703  Biso   1.000  O
  O4       1.0000 0.80952  0.11100  0.44703  Biso   1.000  O
  O5       1.0000 0.20183  0.39001  0.53783  Biso   1.000  O
  O6       1.0000 0.70185  0.39001  0.53783  Biso   1.000  O
  O7       1.0000 0.16053  0.49916  0.46650  Biso   1.000  O
  O8       1.0000 0.66055  0.49916  0.46651  Biso   1.000  O
  O9       1.0000 0.27742  0.43580  0.24879  Biso   1.000  O
  O10      1.0000 0.77743  0.43580  0.24879  Biso   1.000  O
  O11      1.0000 0.25745  0.60471  0.27166  Biso   1.000  O
  O12      1.0000 0.75747  0.60471  0.27166  Biso   1.000  O
  O13      1.0000 0.45764  0.54681  0.15537  Biso   1.000  O
  O14      1.0000 0.95765  0.54682  0.15537  Biso   1.000  O
  O15      1.0000 0.51492  0.66250  0.20005  Biso   1.000  O
  O16      1.0000 0.00000  0.66250  0.20005  Biso   1.000  O
  O17      1.0000 0.42416  0.92853  0.33956  Biso   1.000  O
  O18      1.0000 0.92417  0.92852  0.33957  Biso   1.000  O
  O19      1.0000 0.34233  0.88328  0.39718  Biso   1.000  O
  O20      1.0000 0.84234  0.88328  0.39718  Biso   1.000  O
  O21      1.0000 0.38933  0.87182  0.84985  Biso   1.000  O
  O22      1.0000 0.88934  0.87183  0.84984  Biso   1.000  O
  O23      1.0000 0.43992  0.88821  0.94689  Biso   1.000  O
  O24      1.0000 0.93993  0.88821  0.94688  Biso   1.000  O
  O25      1.0000 0.04550  0.60777  0.03782  Biso   1.000  O
  O26      1.0000 0.54551  0.60777  0.03782  Biso   1.000  O
  O27      1.0000 0.08785  0.49995  0.96677  Biso   1.000  O
  O28      1.0000 0.58786  0.49995  0.96677  Biso   1.000  O
  O29      1.0000 0.47205  0.56618  0.74772  Biso   1.000  O
  O30      1.0000 0.97207  0.56619  0.74772  Biso   1.000  O
  O31      1.0000 0.99301  0.39685  0.76958  Biso   1.000  O
  O32      1.0000 0.49301  0.39685  0.76958  Biso   1.000  O
  O33      1.0000 0.29229  0.45041  0.65244  Biso   1.000  O
  O34      1.0000 0.79230  0.45041  0.65244  Biso   1.000  O
  O35      1.0000 0.23512  0.33705  0.70033  Biso   1.000  O
  O36      1.0000 0.73513  0.33705  0.70033  Biso   1.000  O
  O37      1.0000 0.32638  0.07439  0.84173  Biso   1.000  O
  O38      1.0000 0.82639  0.07439  0.84173  Biso   1.000  O
  O39      1.0000 0.40982  0.11683  0.89714  Biso   1.000  O
  O40      1.0000 0.90983  0.11683  0.89715  Biso   1.000  O
  O41      1.0000 0.13790  0.62919  0.14662  Biso   1.000  O
  O42      1.0000 0.63791  0.62919  0.14662  Biso   1.000  O
  O43      1.0000 0.18790  0.61227  0.04947  Biso   1.000  O
  O44      1.0000 0.68791  0.61227  0.04947  Biso   1.000  O
  O45      1.0000 0.29790  0.89130  0.95917  Biso   1.000  O
  O46      1.0000 0.79791  0.89131  0.95917  Biso   1.000  O
  O47      1.0000 0.34028  0.99936  0.03046  Biso   1.000  O
  O48      1.0000 0.84029  0.99936  0.03046  Biso   1.000  O
  O49      1.0000 0.22213  0.93496  0.24806  Biso   1.000  O
  O50      1.0000 0.72214  0.93496  0.24806  Biso   1.000  O
  O51      1.0000 0.24225  0.10436  0.22537  Biso   1.000  O
  O52      1.0000 0.74226  0.10436  0.22537  Biso   1.000  O
  O53      1.0000 0.04221  0.04962  0.34547  Biso   1.000  O
  O54      1.0000 0.54222  0.04962  0.34548  Biso   1.000  O
  O55      1.0000 0.98521  0.16239  0.29724  Biso   1.000  O
  O56      1.0000 0.48522  0.16239  0.29724  Biso   1.000  O
  O57      1.0000 0.07505  0.42526  0.15563  Biso   1.000  O
  O58      1.0000 0.57506  0.42526  0.15563  Biso   1.000  O
  O59      1.0000 0.15788  0.38343  0.09953  Biso   1.000  O
  O60      1.0000 0.65789  0.38343  0.09953  Biso   1.000  O
  O61      1.0000 0.11026  0.37077  0.64724  Biso   1.000  O
  O62      1.0000 0.61027  0.37077  0.64724  Biso   1.000  O
  O63      1.0000 0.06007  0.38854  0.55012  Biso   1.000  O
  O64      1.0000 0.56008  0.38854  0.55012  Biso   1.000  O
  O65      1.0000 0.45045  0.10966  0.45965  Biso   1.000  O
  O66      1.0000 0.95046  0.10966  0.45965  Biso   1.000  O
  O67      1.0000 0.40955  0.99968  0.53081  Biso   1.000  O
  O68      1.0000 0.90956  0.99968  0.53081  Biso   1.000  O
  O69      1.0000 0.02797  0.06271  0.74814  Biso   1.000  O
  O70      1.0000 0.52798  0.06270  0.74814  Biso   1.000  O
  O71      1.0000 0.50787  0.89340  0.72553  Biso   1.000  O
  O72      1.0000 0.00000  0.89340  0.72553  Biso   1.000  O
  O73      1.0000 0.20786  0.95059  0.84440  Biso   1.000  O
  O74      1.0000 0.70787  0.95059  0.84440  Biso   1.000  O
  O75      1.0000 0.26526  0.83800  0.79732  Biso   1.000  O
  O76      1.0000 0.76527  0.83800  0.79732  Biso   1.000  O
  O77      1.0000 0.17435  0.57164  0.65739  Biso   1.000  O
  O78      1.0000 0.67437  0.57165  0.65736  Biso   1.000  O
  O79      1.0000 0.09255  0.61629  0.59980  Biso   1.000  O
  O80      1.0000 0.59255  0.61629  0.59980  Biso   1.000  O
  O81      1.0000 0.45600  0.06036  0.01852  Biso   1.000  O
