# generated using pymatgen
data_Zn2H7C12O7
_symmetry_space_group_name_H-M   'P 1'
_cell_length_a   14.56500000
_cell_length_b   18.85600000
_cell_length_c   15.85500000
_cell_angle_alpha   89.60200000
_cell_angle_beta   89.99600000
_cell_angle_gamma   90.11400000
_symmetry_Int_Tables_number   1
_chemical_formula_structural   Zn2H7C12O7
_chemical_formula_sum   'Zn16 H56 C96 O56'
_cell_volume   4354.26609342
_cell_formula_units_Z   8
loop_
 _symmetry_equiv_pos_site_id
 _symmetry_equiv_pos_as_xyz
  1  'x, y, z'
loop_
 _atom_site_type_symbol
 _atom_site_label
 _atom_site_symmetry_multiplicity
 _atom_site_fract_x
 _atom_site_fract_y
 _atom_site_fract_z
 _atom_site_occupancy
  Zn  Zn1  1  0.472117  0.959824  0.429923  1.0
  Zn  Zn2  1  0.656534  0.965757  0.363408  1.0
  Zn  Zn3  1  0.530730  0.461743  0.071022  1.0
  Zn  Zn4  1  0.343875  0.466064  0.136763  1.0
  Zn  Zn5  1  0.531415  0.043251  0.569965  1.0
  Zn  Zn6  1  0.344311  0.037149  0.634223  1.0
  Zn  Zn7  1  0.469239  0.541412  0.928666  1.0
  Zn  Zn8  1  0.656087  0.536991  0.863111  1.0
  Zn  Zn9  1  0.030990  0.040777  0.926495  1.0
  Zn  Zn10  1  0.843940  0.036543  0.862449  1.0
  Zn  Zn11  1  0.968606  0.543036  0.569911  1.0
  Zn  Zn12  1  0.155767  0.537205  0.634199  1.0
  Zn  Zn13  1  0.969140  0.961932  0.070599  1.0
  Zn  Zn14  1  0.156097  0.966190  0.135955  1.0
  Zn  Zn15  1  0.027858  0.459792  0.429863  1.0
  Zn  Zn16  1  0.843372  0.465581  0.363509  1.0
  H  H17  1  0.652154  0.966792  0.508271  1.0
  H  H18  1  0.366632  0.135750  0.297711  1.0
  H  H19  1  0.340489  0.256864  0.235694  1.0
  H  H20  1  0.612088  0.254141  0.129306  1.0
  H  H21  1  0.638349  0.133717  0.191306  1.0
  H  H22  1  0.889156  0.988790  0.617383  1.0
  H  H23  1  0.947320  0.983370  0.351919  1.0
  H  H24  1  0.348701  0.466180  0.992201  1.0
  H  H25  1  0.633192  0.637476  0.202169  1.0
  H  H26  1  0.660150  0.757418  0.265362  1.0
  H  H27  1  0.387840  0.753570  0.370281  1.0
  H  H28  1  0.360652  0.634438  0.306788  1.0
  H  H29  1  0.111659  0.490122  0.881911  1.0
  H  H30  1  0.052759  0.482266  0.147316  1.0
  H  H31  1  0.351316  0.036436  0.490256  1.0
  H  H32  1  0.635202  0.867320  0.702897  1.0
  H  H33  1  0.660444  0.746173  0.765040  1.0
  H  H34  1  0.387885  0.749305  0.869336  1.0
  H  H35  1  0.362502  0.869748  0.807108  1.0
  H  H36  1  0.111843  0.014373  0.381083  1.0
  H  H37  1  0.053661  0.000000  0.646528  1.0
  H  H38  1  0.651390  0.536915  0.007599  1.0
  H  H39  1  0.366904  0.365062  0.796985  1.0
  H  H40  1  0.340499  0.245331  0.733085  1.0
  H  H41  1  0.613015  0.250139  0.628699  1.0
  H  H42  1  0.639556  0.369123  0.692633  1.0
  H  H43  1  0.888458  0.513209  0.117661  1.0
  H  H44  1  0.947394  0.521108  0.852280  1.0
  H  H45  1  0.849130  0.036775  0.006316  1.0
  H  H46  1  0.133768  0.865731  0.795321  1.0
  H  H47  1  0.160140  0.745883  0.731830  1.0
  H  H48  1  0.887076  0.749174  0.628627  1.0
  H  H49  1  0.860539  0.868260  0.692255  1.0
  H  H50  1  0.611825  0.013924  0.116157  1.0
  H  H51  1  0.552165  0.000000  0.850904  1.0
  H  H52  1  0.148929  0.536437  0.490284  1.0
  H  H53  1  0.864916  0.366533  0.702198  1.0
  H  H54  1  0.840154  0.244930  0.763506  1.0
  H  H55  1  0.112039  0.249601  0.869229  1.0
  H  H56  1  0.137046  0.370417  0.807638  1.0
  H  H57  1  0.388457  0.514053  0.381546  1.0
  H  H58  1  0.446620  0.520097  0.646979  1.0
  H  H59  1  0.150578  0.966012  0.991600  1.0
  H  H60  1  0.866252  0.137655  0.201043  1.0
  H  H61  1  0.839511  0.257359  0.264674  1.0
  H  H62  1  0.111919  0.253847  0.369364  1.0
  H  H63  1  0.138959  0.135026  0.305247  1.0
  H  H64  1  0.387878  0.989656  0.881141  1.0
  H  H65  1  0.447513  0.982944  0.146424  1.0
  H  H66  1  0.847683  0.466540  0.508367  1.0
  H  H67  1  0.133200  0.636528  0.298022  1.0
  H  H68  1  0.159130  0.757746  0.235999  1.0
  H  H69  1  0.887761  0.753719  0.129141  1.0
  H  H70  1  0.861708  0.633194  0.191129  1.0
  H  H71  1  0.610953  0.489175  0.617948  1.0
  H  H72  1  0.552800  0.483076  0.352503  1.0
  C  C73  1  0.523985  0.059550  0.292839  1.0
  C  C74  1  0.504425  0.128170  0.249129  1.0
  C  C75  1  0.419694  0.162125  0.260539  1.0
  C  C76  1  0.405245  0.229289  0.226207  1.0
  C  C77  1  0.475249  0.262959  0.179938  1.0
  C  C78  1  0.558792  0.227868  0.166183  1.0
  C  C79  1  0.573365  0.160937  0.200661  1.0
  C  C80  1  0.462726  0.336851  0.147863  1.0
  C  C81  1  0.810249  0.966966  0.466210  1.0
  C  C82  1  0.908807  0.983963  0.482943  1.0
  C  C83  1  0.938443  0.994311  0.566129  1.0
  C  C84  1  0.971431  0.991379  0.416149  1.0
  C  C85  1  0.475525  0.561329  0.206177  1.0
  C  C86  1  0.495026  0.629488  0.249896  1.0
  C  C87  1  0.580156  0.663400  0.239216  1.0
  C  C88  1  0.595057  0.729866  0.274243  1.0
  C  C89  1  0.525148  0.762787  0.320609  1.0
  C  C90  1  0.441079  0.727790  0.333437  1.0
  C  C91  1  0.426003  0.661603  0.298115  1.0
  C  C92  1  0.538408  0.835889  0.353668  1.0
  C  C93  1  0.190188  0.467044  0.033521  1.0
  C  C94  1  0.091706  0.484079  0.016392  1.0
  C  C95  1  0.062290  0.495109  0.933070  1.0
  C  C96  1  0.028887  0.490822  0.082986  1.0
  C  C97  1  0.478081  0.943877  0.706497  1.0
  C  C98  1  0.496960  0.875143  0.750337  1.0
  C  C99  1  0.581703  0.841027  0.739613  1.0
  C  C100  1  0.595660  0.773830  0.774036  1.0
  C  C101  1  0.525174  0.740240  0.819788  1.0
  C  C102  1  0.441599  0.775475  0.832866  1.0
  C  C103  1  0.427509  0.842438  0.798246  1.0
  C  C104  1  0.537383  0.666325  0.851970  1.0
  C  C105  1  0.190778  0.036021  0.532380  1.0
  C  C106  1  0.092192  0.019124  0.515513  1.0
  C  C107  1  0.062541  0.008820  0.432326  1.0
  C  C108  1  0.029551  0.000000  0.582297  1.0
  C  C109  1  0.524464  0.441677  0.793552  1.0
  C  C110  1  0.505128  0.373600  0.749501  1.0
  C  C111  1  0.420123  0.339422  0.759874  1.0
  C  C112  1  0.405515  0.273047  0.724435  1.0
  C  C113  1  0.475631  0.240388  0.678057  1.0
  C  C114  1  0.559572  0.275661  0.665551  1.0
  C  C115  1  0.574311  0.341779  0.701173  1.0
  C  C116  1  0.462850  0.167265  0.644719  1.0
  C  C117  1  0.809890  0.536135  0.966160  1.0
  C  C118  1  0.908425  0.519230  0.983208  1.0
  C  C119  1  0.937852  0.508227  0.066526  1.0
  C  C120  1  0.971251  0.512528  0.916612  1.0
  C  C121  1  0.975978  0.941393  0.792465  1.0
  C  C122  1  0.995248  0.873419  0.748434  1.0
  C  C123  1  0.080449  0.839721  0.758549  1.0
  C  C124  1  0.095035  0.773309  0.723369  1.0
  C  C125  1  0.024725  0.740231  0.677484  1.0
  C  C126  1  0.940615  0.775064  0.665146  1.0
  C  C127  1  0.925882  0.841205  0.700545  1.0
  C  C128  1  0.037399  0.667075  0.644481  1.0
  C  C129  1  0.690047  0.036188  0.964363  1.0
  C  C130  1  0.591485  0.019340  0.981726  1.0
  C  C131  1  0.562254  0.008676  0.065189  1.0
  C  C132  1  0.528449  0.000000  0.915336  1.0
  C  C133  1  0.021756  0.443900  0.706581  1.0
  C  C134  1  0.002864  0.375069  0.750280  1.0
  C  C135  1  0.918360  0.340450  0.739021  1.0
  C  C136  1  0.904685  0.273016  0.772978  1.0
  C  C137  1  0.975156  0.239760  0.818852  1.0
  C  C138  1  0.058399  0.275543  0.832613  1.0
  C  C139  1  0.072250  0.342710  0.798381  1.0
  C  C140  1  0.963292  0.165629  0.850457  1.0
  C  C141  1  0.309542  0.536055  0.532697  1.0
  C  C142  1  0.408081  0.519164  0.515959  1.0
  C  C143  1  0.437707  0.508661  0.432817  1.0
  C  C144  1  0.470687  0.511958  0.582768  1.0
  C  C145  1  0.023713  0.061746  0.204674  1.0
  C  C146  1  0.004502  0.129851  0.248545  1.0
  C  C147  1  0.919377  0.163601  0.238114  1.0
  C  C148  1  0.904582  0.229944  0.273405  1.0
  C  C149  1  0.974534  0.262907  0.319886  1.0
  C  C150  1  0.058613  0.228074  0.332438  1.0
  C  C151  1  0.073611  0.162040  0.296783  1.0
  C  C152  1  0.961353  0.335866  0.353381  1.0
  C  C153  1  0.309703  0.967074  0.033002  1.0
  C  C154  1  0.408201  0.984184  0.015588  1.0
  C  C155  1  0.437414  0.994913  0.932135  1.0
  C  C156  1  0.471223  0.991260  0.081985  1.0
  C  C157  1  0.976009  0.559571  0.292874  1.0
  C  C158  1  0.995523  0.628286  0.249216  1.0
  C  C159  1  0.080145  0.662651  0.260762  1.0
  C  C160  1  0.094465  0.729872  0.226414  1.0
  C  C161  1  0.024472  0.763198  0.180002  1.0
  C  C162  1  0.941041  0.727709  0.166132  1.0
  C  C163  1  0.926589  0.660722  0.200627  1.0
  C  C164  1  0.036991  0.837106  0.147837  1.0
  C  C165  1  0.689774  0.466947  0.466732  1.0
  C  C166  1  0.591323  0.484006  0.483509  1.0
  C  C167  1  0.561718  0.494554  0.566660  1.0
  C  C168  1  0.528727  0.491243  0.416705  1.0
  O  O169  1  0.596814  0.991454  0.480833  1.0
  O  O170  1  0.460157  0.031142  0.336700  1.0
  O  O171  1  0.605383  0.034740  0.284660  1.0
  O  O172  1  0.531023  0.364188  0.107537  1.0
  O  O173  1  0.387022  0.367863  0.163185  1.0
  O  O174  1  0.785303  0.972002  0.387502  1.0
  O  O175  1  0.757693  0.950434  0.526365  1.0
  O  O176  1  0.404190  0.490871  0.019210  1.0
  O  O177  1  0.539699  0.533696  0.162700  1.0
  O  O178  1  0.394153  0.536117  0.214289  1.0
  O  O179  1  0.471303  0.861978  0.396141  1.0
  O  O180  1  0.613519  0.867687  0.337052  1.0
  O  O181  1  0.215048  0.472033  0.112185  1.0
  O  O182  1  0.242715  0.450513  0.973693  1.0
  O  O183  1  0.405977  0.011882  0.518421  1.0
  O  O184  1  0.542593  0.971972  0.663116  1.0
  O  O185  1  0.396814  0.969030  0.714160  1.0
  O  O186  1  0.469006  0.639038  0.892255  1.0
  O  O187  1  0.613044  0.635216  0.836753  1.0
  O  O188  1  0.215365  0.030919  0.611246  1.0
  O  O189  1  0.243595  0.052500  0.472458  1.0
  O  O190  1  0.595856  0.512279  0.980591  1.0
  O  O191  1  0.460292  0.469215  0.837138  1.0
  O  O192  1  0.605829  0.466941  0.785563  1.0
  O  O193  1  0.531105  0.141055  0.603845  1.0
  O  O194  1  0.387185  0.135661  0.659527  1.0
  O  O195  1  0.784961  0.531115  0.887521  1.0
  O  O196  1  0.757391  0.552568  0.000000  1.0
  O  O197  1  0.904372  0.011975  0.979415  1.0
  O  O198  1  0.040744  0.969246  0.835339  1.0
  O  O199  1  0.894497  0.966197  0.785326  1.0
  O  O200  1  0.969015  0.640661  0.603772  1.0
  O  O201  1  0.112990  0.635655  0.659392  1.0
  O  O202  1  0.714824  0.031011  0.885653  1.0
  O  O203  1  0.742769  0.052722  0.000000  1.0
  O  O204  1  0.094120  0.511880  0.518384  1.0
  O  O205  1  0.957309  0.471868  0.663180  1.0
  O  O206  1  0.103061  0.469202  0.714284  1.0
  O  O207  1  0.031003  0.138968  0.892051  1.0
  O  O208  1  0.888517  0.133673  0.833433  1.0
  O  O209  1  0.284741  0.530937  0.611506  1.0
  O  O210  1  0.256919  0.552553  0.472719  1.0
  O  O211  1  0.095303  0.990897  0.018310  1.0
  O  O212  1  0.958894  0.033590  0.162251  1.0
  O  O213  1  0.105336  0.037092  0.211671  1.0
  O  O214  1  0.028493  0.361940  0.396026  1.0
  O  O215  1  0.886302  0.367587  0.336966  1.0
  O  O216  1  0.285007  0.972164  0.111708  1.0
  O  O217  1  0.256982  0.950368  0.973357  1.0
  O  O218  1  0.903172  0.491171  0.480841  1.0
  O  O219  1  0.039832  0.531270  0.336676  1.0
  O  O220  1  0.894583  0.534561  0.284686  1.0
  O  O221  1  0.968811  0.864276  0.107429  1.0
  O  O222  1  0.112757  0.868278  0.163212  1.0
  O  O223  1  0.714711  0.471948  0.388012  1.0
  O  O224  1  0.742268  0.450372  0.526848  1.0
