# generated using pymatgen
data_Ag2PH12C6N3O
_symmetry_space_group_name_H-M   'P 1'
_cell_length_a   14.64700000
_cell_length_b   20.81700000
_cell_length_c   16.59600000
_cell_angle_alpha   89.99700000
_cell_angle_beta   90.00600000
_cell_angle_gamma   90.00400000
_symmetry_Int_Tables_number   1
_chemical_formula_structural   Ag2PH12C6N3O
_chemical_formula_sum   'Ag32 P16 H192 C96 N48 O16'
_cell_volume   5060.22986999
_cell_formula_units_Z   16
loop_
 _symmetry_equiv_pos_site_id
 _symmetry_equiv_pos_as_xyz
  1  'x, y, z'
loop_
 _atom_site_type_symbol
 _atom_site_label
 _atom_site_symmetry_multiplicity
 _atom_site_fract_x
 _atom_site_fract_y
 _atom_site_fract_z
 _atom_site_occupancy
  Ag  Ag1  1  0.315233  0.035345  0.301285  1.0
  Ag  Ag2  1  0.315245  0.535329  0.301296  1.0
  Ag  Ag3  1  0.815223  0.035345  0.301285  1.0
  Ag  Ag4  1  0.815235  0.535329  0.301296  1.0
  Ag  Ag5  1  0.369419  0.134280  0.915295  1.0
  Ag  Ag6  1  0.369455  0.634276  0.915281  1.0
  Ag  Ag7  1  0.869411  0.134282  0.915295  1.0
  Ag  Ag8  1  0.869440  0.634275  0.915281  1.0
  Ag  Ag9  1  0.065236  0.285342  0.198720  1.0
  Ag  Ag10  1  0.065226  0.785330  0.198720  1.0
  Ag  Ag11  1  0.565226  0.285342  0.198720  1.0
  Ag  Ag12  1  0.565218  0.785330  0.198719  1.0
  Ag  Ag13  1  0.619405  0.384286  0.584753  1.0
  Ag  Ag14  1  0.619383  0.884278  0.584749  1.0
  Ag  Ag15  1  0.000000  0.384288  0.584753  1.0
  Ag  Ag16  1  0.000000  0.884276  0.584748  1.0
  Ag  Ag17  1  0.065218  0.464647  0.698730  1.0
  Ag  Ag18  1  0.065212  0.964638  0.698730  1.0
  Ag  Ag19  1  0.565212  0.464650  0.698727  1.0
  Ag  Ag20  1  0.565198  0.964636  0.698732  1.0
  Ag  Ag21  1  0.619379  0.365716  0.084728  1.0
  Ag  Ag22  1  0.619353  0.865704  0.084721  1.0
  Ag  Ag23  1  0.000000  0.365716  0.084728  1.0
  Ag  Ag24  1  0.000000  0.865703  0.084721  1.0
  Ag  Ag25  1  0.315227  0.214655  0.801313  1.0
  Ag  Ag26  1  0.315211  0.714637  0.801302  1.0
  Ag  Ag27  1  0.815214  0.214653  0.801311  1.0
  Ag  Ag28  1  0.815204  0.714640  0.801303  1.0
  Ag  Ag29  1  0.369439  0.115704  0.415274  1.0
  Ag  Ag30  1  0.369410  0.615700  0.415287  1.0
  Ag  Ag31  1  0.869430  0.115704  0.415274  1.0
  Ag  Ag32  1  0.869397  0.615700  0.415288  1.0
  P  P33  1  0.989219  0.050265  0.162107  1.0
  P  P34  1  0.989216  0.550252  0.162112  1.0
  P  P35  1  0.489213  0.050266  0.162107  1.0
  P  P36  1  0.489208  0.550253  0.162112  1.0
  P  P37  1  0.239233  0.300253  0.337906  1.0
  P  P38  1  0.239221  0.800245  0.337904  1.0
  P  P39  1  0.739223  0.300253  0.337907  1.0
  P  P40  1  0.739210  0.800244  0.337905  1.0
  P  P41  1  0.239226  0.449726  0.837917  1.0
  P  P42  1  0.239216  0.949710  0.837916  1.0
  P  P43  1  0.739218  0.449724  0.837917  1.0
  P  P44  1  0.739204  0.949711  0.837917  1.0
  P  P45  1  0.989209  0.199736  0.662129  1.0
  P  P46  1  0.989213  0.699722  0.662124  1.0
  P  P47  1  0.489202  0.199733  0.662128  1.0
  P  P48  1  0.489203  0.699723  0.662124  1.0
  H  H49  1  0.062543  0.029525  0.291087  1.0
  H  H50  1  0.062538  0.529512  0.291094  1.0
  H  H51  1  0.562532  0.029525  0.291090  1.0
  H  H52  1  0.562527  0.529513  0.291096  1.0
  H  H53  1  0.099444  0.473968  0.215201  1.0
  H  H54  1  0.099448  0.973958  0.215193  1.0
  H  H55  1  0.599435  0.473967  0.215201  1.0
  H  H56  1  0.599439  0.973957  0.215193  1.0
  H  H57  1  0.441816  0.161334  0.142874  1.0
  H  H58  1  0.441812  0.661320  0.142878  1.0
  H  H59  1  0.941807  0.161332  0.142874  1.0
  H  H60  1  0.941802  0.661319  0.142879  1.0
  H  H61  1  0.465597  0.143459  0.246030  1.0
  H  H62  1  0.465592  0.643447  0.246033  1.0
  H  H63  1  0.965588  0.143459  0.246026  1.0
  H  H64  1  0.965582  0.643446  0.246031  1.0
  H  H65  1  0.060640  0.499067  0.046292  1.0
  H  H66  1  0.060642  0.999058  0.046285  1.0
  H  H67  1  0.560631  0.499065  0.046292  1.0
  H  H68  1  0.560633  0.999056  0.046285  1.0
  H  H69  1  0.000947  0.070341  0.017646  1.0
  H  H70  1  0.000944  0.570327  0.017652  1.0
  H  H71  1  0.500935  0.070343  0.017644  1.0
  H  H72  1  0.500933  0.570328  0.017650  1.0
  H  H73  1  0.261950  0.082758  0.121115  1.0
  H  H74  1  0.261947  0.582746  0.121123  1.0
  H  H75  1  0.761946  0.082761  0.121115  1.0
  H  H76  1  0.761941  0.582747  0.121123  1.0
  H  H77  1  0.206028  0.007248  0.113769  1.0
  H  H78  1  0.206025  0.507234  0.113777  1.0
  H  H79  1  0.706016  0.007246  0.113769  1.0
  H  H80  1  0.706013  0.507233  0.113777  1.0
  H  H81  1  0.065465  0.174563  0.047667  1.0
  H  H82  1  0.065460  0.674550  0.047672  1.0
  H  H83  1  0.565451  0.174563  0.047667  1.0
  H  H84  1  0.565449  0.674549  0.047671  1.0
  H  H85  1  0.180020  0.180324  0.082898  1.0
  H  H86  1  0.180016  0.680312  0.082905  1.0
  H  H87  1  0.680016  0.180327  0.082899  1.0
  H  H88  1  0.680011  0.680313  0.082904  1.0
  H  H89  1  0.123993  0.138968  0.291859  1.0
  H  H90  1  0.123986  0.638956  0.291867  1.0
  H  H91  1  0.623982  0.138969  0.291862  1.0
  H  H92  1  0.623976  0.638957  0.291868  1.0
  H  H93  1  0.213393  0.159199  0.224462  1.0
  H  H94  1  0.213388  0.659186  0.224469  1.0
  H  H95  1  0.713386  0.159200  0.224461  1.0
  H  H96  1  0.713380  0.659187  0.224468  1.0
  H  H97  1  0.312521  0.279523  0.208923  1.0
  H  H98  1  0.312510  0.779510  0.208922  1.0
  H  H99  1  0.812511  0.279523  0.208923  1.0
  H  H100  1  0.812502  0.779510  0.208925  1.0
  H  H101  1  0.349444  0.223970  0.284817  1.0
  H  H102  1  0.349436  0.723961  0.284820  1.0
  H  H103  1  0.849434  0.223970  0.284817  1.0
  H  H104  1  0.849426  0.723962  0.284822  1.0
  H  H105  1  0.191853  0.411320  0.357145  1.0
  H  H106  1  0.191834  0.911311  0.357134  1.0
  H  H107  1  0.691843  0.411320  0.357145  1.0
  H  H108  1  0.691824  0.911311  0.357134  1.0
  H  H109  1  0.215605  0.393457  0.253991  1.0
  H  H110  1  0.215588  0.893444  0.253981  1.0
  H  H111  1  0.715595  0.393457  0.253990  1.0
  H  H112  1  0.715580  0.893444  0.253982  1.0
  H  H113  1  0.310682  0.249052  0.453726  1.0
  H  H114  1  0.310670  0.749050  0.453728  1.0
  H  H115  1  0.810672  0.249052  0.453726  1.0
  H  H116  1  0.810659  0.749052  0.453729  1.0
  H  H117  1  0.250998  0.320313  0.482369  1.0
  H  H118  1  0.250982  0.820312  0.482366  1.0
  H  H119  1  0.750988  0.320314  0.482369  1.0
  H  H120  1  0.750972  0.820312  0.482365  1.0
  H  H121  1  0.011989  0.332733  0.378895  1.0
  H  H122  1  0.011972  0.832733  0.378894  1.0
  H  H123  1  0.511978  0.332732  0.378895  1.0
  H  H124  1  0.511964  0.832734  0.378892  1.0
  H  H125  1  0.456049  0.257223  0.386238  1.0
  H  H126  1  0.456039  0.757221  0.386240  1.0
  H  H127  1  0.956039  0.257223  0.386238  1.0
  H  H128  1  0.956029  0.757223  0.386242  1.0
  H  H129  1  0.315518  0.424536  0.452349  1.0
  H  H130  1  0.315496  0.924535  0.452339  1.0
  H  H131  1  0.815508  0.424536  0.452349  1.0
  H  H132  1  0.815486  0.924535  0.452339  1.0
  H  H133  1  0.430068  0.430297  0.417117  1.0
  H  H134  1  0.430048  0.930298  0.417106  1.0
  H  H135  1  0.930058  0.430298  0.417117  1.0
  H  H136  1  0.930035  0.930298  0.417108  1.0
  H  H137  1  0.373979  0.388965  0.208155  1.0
  H  H138  1  0.373961  0.888954  0.208145  1.0
  H  H139  1  0.873969  0.388965  0.208155  1.0
  H  H140  1  0.873953  0.888954  0.208148  1.0
  H  H141  1  0.463398  0.409185  0.275551  1.0
  H  H142  1  0.463380  0.909180  0.275542  1.0
  H  H143  1  0.963388  0.409185  0.275551  1.0
  H  H144  1  0.963370  0.909180  0.275543  1.0
  H  H145  1  0.312510  0.470464  0.708929  1.0
  H  H146  1  0.312501  0.970453  0.708931  1.0
  H  H147  1  0.812501  0.470463  0.708928  1.0
  H  H148  1  0.812491  0.970454  0.708932  1.0
  H  H149  1  0.349439  0.026022  0.784826  1.0
  H  H150  1  0.349444  0.526015  0.784818  1.0
  H  H151  1  0.849427  0.026023  0.784825  1.0
  H  H152  1  0.849437  0.526014  0.784821  1.0
  H  H153  1  0.191831  0.338656  0.857162  1.0
  H  H154  1  0.191809  0.838642  0.857152  1.0
  H  H155  1  0.691819  0.338655  0.857161  1.0
  H  H156  1  0.691802  0.838642  0.857152  1.0
  H  H157  1  0.215582  0.356526  0.754005  1.0
  H  H158  1  0.215564  0.856517  0.753995  1.0
  H  H159  1  0.715570  0.356526  0.754002  1.0
  H  H160  1  0.715556  0.856517  0.753998  1.0
  H  H161  1  0.310676  0.000923  0.953736  1.0
  H  H162  1  0.310688  0.500922  0.953730  1.0
  H  H163  1  0.810666  0.000923  0.953735  1.0
  H  H164  1  0.810679  0.500922  0.953732  1.0
  H  H165  1  0.250996  0.429659  0.982380  1.0
  H  H166  1  0.250976  0.929636  0.982379  1.0
  H  H167  1  0.750982  0.429656  0.982381  1.0
  H  H168  1  0.750969  0.929638  0.982378  1.0
  H  H169  1  0.011982  0.417247  0.878899  1.0
  H  H170  1  0.011964  0.917228  0.878898  1.0
  H  H171  1  0.511969  0.417253  0.878896  1.0
  H  H172  1  0.511955  0.917224  0.878900  1.0
  H  H173  1  0.456051  0.492760  0.886238  1.0
  H  H174  1  0.456039  0.992736  0.886246  1.0
  H  H175  1  0.956040  0.492757  0.886241  1.0
  H  H176  1  0.956030  0.992738  0.886245  1.0
  H  H177  1  0.315499  0.325439  0.952362  1.0
  H  H178  1  0.315470  0.825416  0.952354  1.0
  H  H179  1  0.815483  0.325437  0.952361  1.0
  H  H180  1  0.815465  0.825417  0.952355  1.0
  H  H181  1  0.430046  0.319683  0.917125  1.0
  H  H182  1  0.430023  0.819655  0.917120  1.0
  H  H183  1  0.930036  0.319678  0.917126  1.0
  H  H184  1  0.930013  0.819660  0.917119  1.0
  H  H185  1  0.373952  0.361025  0.708163  1.0
  H  H186  1  0.373936  0.861011  0.708158  1.0
  H  H187  1  0.873942  0.361023  0.708163  1.0
  H  H188  1  0.873927  0.861013  0.708158  1.0
  H  H189  1  0.463375  0.340802  0.775556  1.0
  H  H190  1  0.463356  0.840782  0.775554  1.0
  H  H191  1  0.963364  0.340799  0.775558  1.0
  H  H192  1  0.963347  0.840784  0.775552  1.0
  H  H193  1  0.062529  0.220463  0.791114  1.0
  H  H194  1  0.062532  0.720450  0.791109  1.0
  H  H195  1  0.562518  0.220463  0.791116  1.0
  H  H196  1  0.562521  0.720450  0.791109  1.0
  H  H197  1  0.099443  0.276020  0.715223  1.0
  H  H198  1  0.099446  0.776006  0.715217  1.0
  H  H199  1  0.599436  0.276019  0.715221  1.0
  H  H200  1  0.599435  0.776008  0.715219  1.0
  H  H201  1  0.441791  0.088667  0.642892  1.0
  H  H202  1  0.441799  0.588655  0.642885  1.0
  H  H203  1  0.941784  0.088668  0.642891  1.0
  H  H204  1  0.941786  0.588654  0.642887  1.0
  H  H205  1  0.465573  0.106532  0.746049  1.0
  H  H206  1  0.465581  0.606519  0.746040  1.0
  H  H207  1  0.965567  0.106532  0.746045  1.0
  H  H208  1  0.965568  0.606519  0.746042  1.0
  H  H209  1  0.060642  0.250940  0.546313  1.0
  H  H210  1  0.060643  0.750926  0.546307  1.0
  H  H211  1  0.560632  0.250939  0.546312  1.0
  H  H212  1  0.560632  0.750929  0.546308  1.0
  H  H213  1  0.000938  0.179678  0.517666  1.0
  H  H214  1  0.000939  0.679664  0.517661  1.0
  H  H215  1  0.500925  0.179674  0.517665  1.0
  H  H216  1  0.500930  0.679666  0.517661  1.0
  H  H217  1  0.261940  0.167263  0.621143  1.0
  H  H218  1  0.261943  0.667247  0.621135  1.0
  H  H219  1  0.761933  0.167255  0.621142  1.0
  H  H220  1  0.761934  0.667252  0.621135  1.0
  H  H221  1  0.206020  0.242765  0.613801  1.0
  H  H222  1  0.206023  0.742755  0.613793  1.0
  H  H223  1  0.706010  0.242765  0.613799  1.0
  H  H224  1  0.706012  0.742758  0.613795  1.0
  H  H225  1  0.065447  0.075458  0.547688  1.0
  H  H226  1  0.065443  0.575443  0.547681  1.0
  H  H227  1  0.565428  0.075455  0.547687  1.0
  H  H228  1  0.565438  0.575446  0.547679  1.0
  H  H229  1  0.179998  0.069693  0.582916  1.0
  H  H230  1  0.180002  0.569679  0.582911  1.0
  H  H231  1  0.679990  0.069688  0.582918  1.0
  H  H232  1  0.679995  0.569683  0.582909  1.0
  H  H233  1  0.123972  0.111024  0.791875  1.0
  H  H234  1  0.123973  0.611010  0.791875  1.0
  H  H235  1  0.623958  0.111022  0.791881  1.0
  H  H236  1  0.623966  0.611011  0.791873  1.0
  H  H237  1  0.213370  0.090805  0.724485  1.0
  H  H238  1  0.213373  0.590791  0.724477  1.0
  H  H239  1  0.713359  0.090802  0.724484  1.0
  H  H240  1  0.713366  0.590794  0.724476  1.0
  C  C241  1  0.083768  0.024820  0.227691  1.0
  C  C242  1  0.083763  0.524807  0.227699  1.0
  C  C243  1  0.583756  0.024818  0.227696  1.0
  C  C244  1  0.583752  0.524806  0.227701  1.0
  C  C245  1  0.489544  0.136518  0.183639  1.0
  C  C246  1  0.489541  0.636504  0.183642  1.0
  C  C247  1  0.989538  0.136516  0.183636  1.0
  C  C248  1  0.989534  0.636504  0.183641  1.0
  C  C249  1  0.045951  0.049104  0.063994  1.0
  C  C250  1  0.045949  0.549091  0.064000  1.0
  C  C251  1  0.545937  0.049102  0.063990  1.0
  C  C252  1  0.545936  0.549089  0.063997  1.0
  C  C253  1  0.195870  0.058431  0.127264  1.0
  C  C254  1  0.195868  0.558417  0.127271  1.0
  C  C255  1  0.695869  0.058431  0.127260  1.0
  C  C256  1  0.695863  0.558417  0.127268  1.0
  C  C257  1  0.115525  0.153908  0.089611  1.0
  C  C258  1  0.115520  0.653896  0.089615  1.0
  C  C259  1  0.615520  0.153912  0.089606  1.0
  C  C260  1  0.615515  0.653898  0.089612  1.0
  C  C261  1  0.148374  0.133423  0.229792  1.0
  C  C262  1  0.148368  0.633411  0.229801  1.0
  C  C263  1  0.648366  0.133425  0.229796  1.0
  C  C264  1  0.648360  0.633412  0.229801  1.0
  C  C265  1  0.333762  0.274810  0.272318  1.0
  C  C266  1  0.333751  0.774801  0.272317  1.0
  C  C267  1  0.833752  0.274810  0.272318  1.0
  C  C268  1  0.833742  0.774802  0.272320  1.0
  C  C269  1  0.239571  0.386507  0.316380  1.0
  C  C270  1  0.239554  0.886498  0.316371  1.0
  C  C271  1  0.739560  0.386507  0.316380  1.0
  C  C272  1  0.739545  0.886497  0.316372  1.0
  C  C273  1  0.295986  0.299078  0.436021  1.0
  C  C274  1  0.295973  0.799075  0.436020  1.0
  C  C275  1  0.795976  0.299078  0.436021  1.0
  C  C276  1  0.795963  0.799077  0.436019  1.0
  C  C277  1  0.445895  0.308409  0.372747  1.0
  C  C278  1  0.445884  0.808406  0.372747  1.0
  C  C279  1  0.945886  0.308409  0.372748  1.0
  C  C280  1  0.945870  0.808407  0.372747  1.0
  C  C281  1  0.365569  0.403884  0.410406  1.0
  C  C282  1  0.365550  0.903884  0.410400  1.0
  C  C283  1  0.865559  0.403885  0.410406  1.0
  C  C284  1  0.865538  0.903883  0.410398  1.0
  C  C285  1  0.398375  0.383413  0.270222  1.0
  C  C286  1  0.398359  0.883406  0.270212  1.0
  C  C287  1  0.898365  0.383413  0.270221  1.0
  C  C288  1  0.898348  0.883405  0.270215  1.0
  C  C289  1  0.333754  0.475175  0.772323  1.0
  C  C290  1  0.333745  0.975161  0.772325  1.0
  C  C291  1  0.833745  0.475175  0.772322  1.0
  C  C292  1  0.833735  0.975161  0.772326  1.0
  C  C293  1  0.239550  0.363473  0.816394  1.0
  C  C294  1  0.239530  0.863458  0.816386  1.0
  C  C295  1  0.739536  0.363471  0.816391  1.0
  C  C296  1  0.739524  0.863459  0.816388  1.0
  C  C297  1  0.295986  0.450897  0.936028  1.0
  C  C298  1  0.295967  0.950876  0.936031  1.0
  C  C299  1  0.795971  0.450897  0.936031  1.0
  C  C300  1  0.795961  0.950876  0.936029  1.0
  C  C301  1  0.445889  0.441575  0.872749  1.0
  C  C302  1  0.445879  0.941551  0.872755  1.0
  C  C303  1  0.945883  0.441571  0.872754  1.0
  C  C304  1  0.945866  0.941554  0.872752  1.0
  C  C305  1  0.365550  0.346094  0.910415  1.0
  C  C306  1  0.365529  0.846069  0.910414  1.0
  C  C307  1  0.865540  0.346089  0.910419  1.0
  C  C308  1  0.865519  0.846072  0.910411  1.0
  C  C309  1  0.398355  0.366573  0.770228  1.0
  C  C310  1  0.398339  0.866555  0.770223  1.0
  C  C311  1  0.898345  0.366571  0.770227  1.0
  C  C312  1  0.898330  0.866558  0.770223  1.0
  C  C313  1  0.083755  0.225179  0.727719  1.0
  C  C314  1  0.083759  0.725165  0.727714  1.0
  C  C315  1  0.583745  0.225179  0.727722  1.0
  C  C316  1  0.583748  0.725166  0.727715  1.0
  C  C317  1  0.489521  0.113480  0.683659  1.0
  C  C318  1  0.489531  0.613469  0.683649  1.0
  C  C319  1  0.989516  0.113482  0.683655  1.0
  C  C320  1  0.989518  0.613468  0.683651  1.0
  C  C321  1  0.045941  0.200913  0.564017  1.0
  C  C322  1  0.045942  0.700899  0.564011  1.0
  C  C323  1  0.545928  0.200912  0.564014  1.0
  C  C324  1  0.545933  0.700902  0.564011  1.0
  C  C325  1  0.195858  0.191579  0.627292  1.0
  C  C326  1  0.195865  0.691569  0.627283  1.0
  C  C327  1  0.695856  0.191578  0.627287  1.0
  C  C328  1  0.695855  0.691572  0.627284  1.0
  C  C329  1  0.115510  0.096109  0.589633  1.0
  C  C330  1  0.115511  0.596093  0.589623  1.0
  C  C331  1  0.615500  0.096102  0.589628  1.0
  C  C332  1  0.615504  0.596096  0.589623  1.0
  C  C333  1  0.148353  0.116578  0.729808  1.0
  C  C334  1  0.148356  0.616563  0.729808  1.0
  C  C335  1  0.648343  0.116574  0.729815  1.0
  C  C336  1  0.648348  0.616565  0.729806  1.0
  N  N337  1  0.166446  0.064689  0.212705  1.0
  N  N338  1  0.166439  0.564678  0.212710  1.0
  N  N339  1  0.666427  0.064692  0.212697  1.0
  N  N340  1  0.666424  0.564679  0.212705  1.0
  N  N341  1  0.131606  0.086365  0.069539  1.0
  N  N342  1  0.131603  0.586352  0.069548  1.0
  N  N343  1  0.631589  0.086364  0.069548  1.0
  N  N344  1  0.631588  0.586351  0.069552  1.0
  N  N345  1  0.082561  0.163984  0.173626  1.0
  N  N346  1  0.082557  0.663969  0.173631  1.0
  N  N347  1  0.582551  0.163975  0.173622  1.0
  N  N348  1  0.582547  0.663964  0.173627  1.0
  N  N349  1  0.416444  0.314677  0.287309  1.0
  N  N350  1  0.416428  0.814671  0.287310  1.0
  N  N351  1  0.916433  0.314677  0.287310  1.0
  N  N352  1  0.916422  0.814671  0.287307  1.0
  N  N353  1  0.381642  0.336336  0.430471  1.0
  N  N354  1  0.381626  0.836336  0.430464  1.0
  N  N355  1  0.881631  0.336337  0.430470  1.0
  N  N356  1  0.881617  0.836337  0.430469  1.0
  N  N357  1  0.332579  0.413967  0.326393  1.0
  N  N358  1  0.332562  0.913958  0.326384  1.0
  N  N359  1  0.832569  0.413966  0.326393  1.0
  N  N360  1  0.832551  0.913961  0.326383  1.0
  N  N361  1  0.416431  0.435309  0.787311  1.0
  N  N362  1  0.416415  0.935289  0.787320  1.0
  N  N363  1  0.916417  0.435306  0.787319  1.0
  N  N364  1  0.916409  0.935292  0.787314  1.0
  N  N365  1  0.381636  0.413641  0.930476  1.0
  N  N366  1  0.381613  0.913617  0.930472  1.0
  N  N367  1  0.881618  0.413639  0.930472  1.0
  N  N368  1  0.881609  0.913618  0.930475  1.0
  N  N369  1  0.332556  0.336016  0.826403  1.0
  N  N370  1  0.332536  0.836003  0.826399  1.0
  N  N371  1  0.832543  0.336019  0.826406  1.0
  N  N372  1  0.832528  0.836000  0.826397  1.0
  N  N373  1  0.166431  0.185316  0.712733  1.0
  N  N374  1  0.166431  0.685300  0.712722  1.0
  N  N375  1  0.666413  0.185311  0.712723  1.0
  N  N376  1  0.666422  0.685303  0.712723  1.0
  N  N377  1  0.131591  0.163656  0.569560  1.0
  N  N378  1  0.131591  0.663641  0.569561  1.0
  N  N379  1  0.631574  0.163652  0.569570  1.0
  N  N380  1  0.631583  0.663645  0.569559  1.0
  N  N381  1  0.082535  0.086019  0.673644  1.0
  N  N382  1  0.082539  0.586010  0.673637  1.0
  N  N383  1  0.582524  0.086026  0.673641  1.0
  N  N384  1  0.582532  0.586011  0.673636  1.0
  O  O385  1  0.398750  0.516378  0.170317  1.0
  O  O386  1  0.398755  0.000000  0.170314  1.0
  O  O387  1  0.898737  0.516376  0.170318  1.0
  O  O388  1  0.898740  0.000000  0.170315  1.0
  O  O389  1  0.148769  0.266382  0.329697  1.0
  O  O390  1  0.148760  0.766371  0.329698  1.0
  O  O391  1  0.648760  0.266382  0.329698  1.0
  O  O392  1  0.648749  0.766371  0.329697  1.0
  O  O393  1  0.148761  0.983606  0.829710  1.0
  O  O394  1  0.148768  0.483595  0.829709  1.0
  O  O395  1  0.648748  0.983606  0.829710  1.0
  O  O396  1  0.648761  0.483594  0.829710  1.0
  O  O397  1  0.398748  0.233604  0.670332  1.0
  O  O398  1  0.398748  0.733592  0.670330  1.0
  O  O399  1  0.898734  0.233605  0.670333  1.0
  O  O400  1  0.898738  0.733593  0.670330  1.0
