# generated using pymatgen
data_ZnH9(C3O)5
_symmetry_space_group_name_H-M   'P 1'
_cell_length_a   18.62600000
_cell_length_b   14.53600000
_cell_length_c   27.64900000
_cell_angle_alpha   89.93500000
_cell_angle_beta   89.86700000
_cell_angle_gamma   92.54300000
_symmetry_Int_Tables_number   1
_chemical_formula_structural   ZnH9(C3O)5
_chemical_formula_sum   'Zn16 H144 C240 O80'
_cell_volume   7478.50065592
_cell_formula_units_Z   16
loop_
 _symmetry_equiv_pos_site_id
 _symmetry_equiv_pos_as_xyz
  1  'x, y, z'
loop_
 _atom_site_type_symbol
 _atom_site_label
 _atom_site_symmetry_multiplicity
 _atom_site_fract_x
 _atom_site_fract_y
 _atom_site_fract_z
 _atom_site_occupancy
  Zn  Zn1  1  0.349411  0.120757  0.333687  1.0
  Zn  Zn2  1  0.849404  0.120757  0.333687  1.0
  Zn  Zn3  1  0.496751  0.105720  0.378924  1.0
  Zn  Zn4  1  0.996743  0.105719  0.378923  1.0
  Zn  Zn5  1  0.150674  0.379307  0.833481  1.0
  Zn  Zn6  1  0.650666  0.379307  0.833481  1.0
  Zn  Zn7  1  0.003330  0.394092  0.879059  1.0
  Zn  Zn8  1  0.503322  0.394092  0.879059  1.0
  Zn  Zn9  1  0.150577  0.879223  0.666308  1.0
  Zn  Zn10  1  0.650569  0.879223  0.666307  1.0
  Zn  Zn11  1  0.003238  0.894261  0.621071  1.0
  Zn  Zn12  1  0.503230  0.894260  0.621071  1.0
  Zn  Zn13  1  0.349314  0.620676  0.166514  1.0
  Zn  Zn14  1  0.849306  0.620675  0.166514  1.0
  Zn  Zn15  1  0.496657  0.605891  0.120936  1.0
  Zn  Zn16  1  0.996649  0.605891  0.120936  1.0
  H  H17  1  0.055321  0.330592  0.365789  1.0
  H  H18  1  0.555312  0.330592  0.365789  1.0
  H  H19  1  0.089676  0.555608  0.264939  1.0
  H  H20  1  0.589668  0.555607  0.264939  1.0
  H  H21  1  0.390767  0.391560  0.262702  1.0
  H  H22  1  0.890759  0.391561  0.262703  1.0
  H  H23  1  0.173613  0.355775  0.372924  1.0
  H  H24  1  0.673603  0.355776  0.372926  1.0
  H  H25  1  0.124556  0.433838  0.408558  1.0
  H  H26  1  0.624547  0.433841  0.408558  1.0
  H  H27  1  0.304846  0.390172  0.356420  1.0
  H  H28  1  0.804837  0.390162  0.356427  1.0
  H  H29  1  0.417877  0.463512  0.387581  1.0
  H  H30  1  0.917868  0.463501  0.387588  1.0
  H  H31  1  0.295912  0.643554  0.476321  1.0
  H  H32  1  0.795903  0.643566  0.476316  1.0
  H  H33  1  0.183335  0.565936  0.447370  1.0
  H  H34  1  0.683326  0.565948  0.447364  1.0
  H  H35  1  0.992248  0.590283  0.385184  1.0
  H  H36  1  0.492237  0.590295  0.385181  1.0
  H  H37  1  0.104028  0.666398  0.415533  1.0
  H  H38  1  0.604017  0.666411  0.415530  1.0
  H  H39  1  0.003269  0.708265  0.553484  1.0
  H  H40  1  0.503264  0.708254  0.553486  1.0
  H  H41  1  0.390869  0.634272  0.523014  1.0
  H  H42  1  0.890858  0.634283  0.523012  1.0
  H  H43  1  0.122306  0.764082  0.542477  1.0
  H  H44  1  0.622298  0.764083  0.542476  1.0
  H  H45  1  0.172146  0.682062  0.510157  1.0
  H  H46  1  0.672138  0.682062  0.510157  1.0
  H  H47  1  0.211192  0.924724  0.415796  1.0
  H  H48  1  0.711184  0.924724  0.415796  1.0
  H  H49  1  0.413315  0.965862  0.490742  1.0
  H  H50  1  0.913306  0.965867  0.490743  1.0
  H  H51  1  0.250928  0.777875  0.548566  1.0
  H  H52  1  0.750920  0.777877  0.548567  1.0
  H  H53  1  0.445462  0.169018  0.866342  1.0
  H  H54  1  0.945455  0.169017  0.866344  1.0
  H  H55  1  0.410671  0.944385  0.765648  1.0
  H  H56  1  0.910663  0.944383  0.765651  1.0
  H  H57  1  0.109562  0.108557  0.762431  1.0
  H  H58  1  0.609555  0.108557  0.762431  1.0
  H  H59  1  0.327411  0.144500  0.873677  1.0
  H  H60  1  0.827404  0.144501  0.873679  1.0
  H  H61  1  0.375911  0.066154  0.909455  1.0
  H  H62  1  0.875903  0.066158  0.909459  1.0
  H  H63  1  0.196165  0.111546  0.857591  1.0
  H  H64  1  0.696159  0.111546  0.857592  1.0
  H  H65  1  0.082672  0.038212  0.888518  1.0
  H  H66  1  0.582664  0.038214  0.888518  1.0
  H  H67  1  0.203429  0.855994  0.976623  1.0
  H  H68  1  0.703420  0.856001  0.976627  1.0
  H  H69  1  0.316430  0.933745  0.948027  1.0
  H  H70  1  0.816421  0.933751  0.948032  1.0
  H  H71  1  0.507991  0.911619  0.885586  1.0
  H  H72  1  0.000000  0.911620  0.885585  1.0
  H  H73  1  0.395913  0.835153  0.915651  1.0
  H  H74  1  0.895902  0.835157  0.915650  1.0
  H  H75  1  0.495648  0.790529  0.053439  1.0
  H  H76  1  0.995642  0.790523  0.053437  1.0
  H  H77  1  0.108355  0.864557  0.023185  1.0
  H  H78  1  0.608345  0.864565  0.023189  1.0
  H  H79  1  0.376597  0.735823  0.042445  1.0
  H  H80  1  0.876589  0.735825  0.042444  1.0
  H  H81  1  0.326935  0.817679  0.009920  1.0
  H  H82  1  0.826926  0.817679  0.009919  1.0
  H  H83  1  0.289474  0.575783  0.915343  1.0
  H  H84  1  0.789467  0.575780  0.915344  1.0
  H  H85  1  0.086028  0.534493  0.989295  1.0
  H  H86  1  0.586020  0.534491  0.989295  1.0
  H  H87  1  0.247557  0.721893  0.047971  1.0
  H  H88  1  0.747549  0.721893  0.047971  1.0
  H  H89  1  0.444668  0.669387  0.634204  1.0
  H  H90  1  0.944660  0.669386  0.634203  1.0
  H  H91  1  0.410311  0.444375  0.735056  1.0
  H  H92  1  0.910303  0.444375  0.735056  1.0
  H  H93  1  0.109221  0.608419  0.737290  1.0
  H  H94  1  0.609214  0.608418  0.737290  1.0
  H  H95  1  0.326374  0.644200  0.627065  1.0
  H  H96  1  0.826368  0.644199  0.627063  1.0
  H  H97  1  0.375433  0.566133  0.591435  1.0
  H  H98  1  0.875427  0.566130  0.591434  1.0
  H  H99  1  0.195141  0.609804  0.643567  1.0
  H  H100  1  0.695134  0.609808  0.643564  1.0
  H  H101  1  0.082112  0.536457  0.612406  1.0
  H  H102  1  0.582105  0.536462  0.612403  1.0
  H  H103  1  0.204083  0.356401  0.523678  1.0
  H  H104  1  0.704074  0.356398  0.523678  1.0
  H  H105  1  0.316658  0.434025  0.552629  1.0
  H  H106  1  0.816650  0.434021  0.552629  1.0
  H  H107  1  0.507747  0.409670  0.614810  1.0
  H  H108  1  0.000000  0.409666  0.614811  1.0
  H  H109  1  0.395966  0.333557  0.584460  1.0
  H  H110  1  0.895959  0.333553  0.584460  1.0
  H  H111  1  0.496722  0.291709  0.446506  1.0
  H  H112  1  0.996715  0.291709  0.446506  1.0
  H  H113  1  0.109126  0.365687  0.476980  1.0
  H  H114  1  0.609118  0.365686  0.476979  1.0
  H  H115  1  0.377686  0.235880  0.457516  1.0
  H  H116  1  0.877679  0.235877  0.457516  1.0
  H  H117  1  0.327848  0.317909  0.489831  1.0
  H  H118  1  0.827841  0.317908  0.489830  1.0
  H  H119  1  0.288797  0.075251  0.584197  1.0
  H  H120  1  0.788789  0.075251  0.584197  1.0
  H  H121  1  0.086677  0.034104  0.509249  1.0
  H  H122  1  0.586668  0.034108  0.509250  1.0
  H  H123  1  0.249062  0.222096  0.451426  1.0
  H  H124  1  0.749055  0.222097  0.451426  1.0
  H  H125  1  0.054529  0.830959  0.133655  1.0
  H  H126  1  0.554522  0.830958  0.133657  1.0
  H  H127  1  0.089318  0.055596  0.234347  1.0
  H  H128  1  0.589310  0.055594  0.234350  1.0
  H  H129  1  0.390425  0.891426  0.237564  1.0
  H  H130  1  0.890418  0.891425  0.237564  1.0
  H  H131  1  0.172583  0.855474  0.126325  1.0
  H  H132  1  0.672577  0.855474  0.126327  1.0
  H  H133  1  0.124083  0.933810  0.090542  1.0
  H  H134  1  0.624076  0.933813  0.090546  1.0
  H  H135  1  0.303828  0.888431  0.142409  1.0
  H  H136  1  0.803822  0.888432  0.142411  1.0
  H  H137  1  0.417321  0.961764  0.111481  1.0
  H  H138  1  0.917314  0.961766  0.111482  1.0
  H  H139  1  0.296561  0.143969  0.023370  1.0
  H  H140  1  0.796552  0.143974  0.023374  1.0
  H  H141  1  0.183561  0.066217  0.051966  1.0
  H  H142  1  0.683553  0.066222  0.051971  1.0
  H  H143  1  0.992005  0.088350  0.114411  1.0
  H  H144  1  0.491995  0.088350  0.114410  1.0
  H  H145  1  0.104083  0.164813  0.084345  1.0
  H  H146  1  0.604073  0.164815  0.084345  1.0
  H  H147  1  0.004338  0.209458  0.946562  1.0
  H  H148  1  0.504332  0.209453  0.946560  1.0
  H  H149  1  0.391635  0.135417  0.976811  1.0
  H  H150  1  0.891625  0.135425  0.976814  1.0
  H  H151  1  0.123394  0.264146  0.957551  1.0
  H  H152  1  0.623386  0.264148  0.957551  1.0
  H  H153  1  0.173058  0.182299  0.990081  1.0
  H  H154  1  0.673050  0.182299  0.990079  1.0
  H  H155  1  0.210510  0.424203  0.084651  1.0
  H  H156  1  0.710503  0.424201  0.084651  1.0
  H  H157  1  0.413952  0.465512  0.010695  1.0
  H  H158  1  0.913944  0.465509  0.010696  1.0
  H  H159  1  0.252431  0.278094  0.952023  1.0
  H  H160  1  0.752423  0.278093  0.952023  1.0
  C  C161  1  0.469060  0.354140  0.316114  1.0
  C  C162  1  0.969052  0.354141  0.316114  1.0
  C  C163  1  0.036584  0.374814  0.337126  1.0
  C  C164  1  0.536576  0.374814  0.337127  1.0
  C  C165  1  0.079314  0.449304  0.319446  1.0
  C  C166  1  0.579306  0.449304  0.319446  1.0
  C  C167  1  0.055215  0.499976  0.279766  1.0
  C  C168  1  0.555207  0.499976  0.279766  1.0
  C  C169  1  0.487461  0.479696  0.259835  1.0
  C  C170  1  0.987453  0.479697  0.259835  1.0
  C  C171  1  0.443359  0.407399  0.278319  1.0
  C  C172  1  0.943351  0.407399  0.278319  1.0
  C  C173  1  0.426496  0.272256  0.333288  1.0
  C  C174  1  0.926488  0.272256  0.333287  1.0
  C  C175  1  0.462097  0.533529  0.217650  1.0
  C  C176  1  0.962089  0.533529  0.217650  1.0
  C  C177  1  0.167350  0.428889  0.381268  1.0
  C  C178  1  0.667341  0.428890  0.381269  1.0
  C  C179  1  0.236081  0.473838  0.399299  1.0
  C  C180  1  0.736072  0.473839  0.399299  1.0
  C  C181  1  0.302893  0.445767  0.382827  1.0
  C  C182  1  0.802884  0.445762  0.382832  1.0
  C  C183  1  0.366508  0.487670  0.400042  1.0
  C  C184  1  0.866499  0.487664  0.400046  1.0
  C  C185  1  0.365574  0.559532  0.434072  1.0
  C  C186  1  0.865565  0.559532  0.434073  1.0
  C  C187  1  0.298355  0.587083  0.450551  1.0
  C  C188  1  0.798347  0.587090  0.450549  1.0
  C  C189  1  0.234903  0.544427  0.433705  1.0
  C  C190  1  0.734894  0.544435  0.433703  1.0
  C  C191  1  0.433115  0.604474  0.452119  1.0
  C  C192  1  0.933107  0.604474  0.452120  1.0
  C  C193  1  0.994555  0.614499  0.422488  1.0
  C  C194  1  0.494546  0.614506  0.422486  1.0
  C  C195  1  0.057822  0.657251  0.439622  1.0
  C  C196  1  0.557813  0.657259  0.439620  1.0
  C  C197  1  0.062119  0.690846  0.487125  1.0
  C  C198  1  0.562111  0.690847  0.487125  1.0
  C  C199  1  0.001124  0.681824  0.516624  1.0
  C  C200  1  0.501118  0.681818  0.516625  1.0
  C  C201  1  0.437639  0.639761  0.499329  1.0
  C  C202  1  0.937629  0.639767  0.499329  1.0
  C  C203  1  0.131012  0.734086  0.506462  1.0
  C  C204  1  0.631004  0.734086  0.506462  1.0
  C  C205  1  0.223409  0.844612  0.480727  1.0
  C  C206  1  0.723401  0.844613  0.480728  1.0
  C  C207  1  0.246729  0.909151  0.445620  1.0
  C  C208  1  0.746720  0.909152  0.445620  1.0
  C  C209  1  0.315423  0.951240  0.448915  1.0
  C  C210  1  0.815415  0.951242  0.448916  1.0
  C  C211  1  0.360249  0.932198  0.488037  1.0
  C  C212  1  0.860240  0.932201  0.488038  1.0
  C  C213  1  0.335833  0.870765  0.523818  1.0
  C  C214  1  0.835824  0.870769  0.523819  1.0
  C  C215  1  0.267762  0.825741  0.520025  1.0
  C  C216  1  0.767754  0.825743  0.520026  1.0
  C  C217  1  0.342956  0.015589  0.410778  1.0
  C  C218  1  0.842947  0.015589  0.410778  1.0
  C  C219  1  0.382451  0.853047  0.566801  1.0
  C  C220  1  0.882442  0.853050  0.566802  1.0
  C  C221  1  0.031429  0.145730  0.816205  1.0
  C  C222  1  0.531420  0.145731  0.816204  1.0
  C  C223  1  0.464019  0.124929  0.837561  1.0
  C  C224  1  0.964012  0.124928  0.837563  1.0
  C  C225  1  0.421218  0.050529  0.820101  1.0
  C  C226  1  0.921211  0.050528  0.820104  1.0
  C  C227  1  0.445177  0.999969  0.780306  1.0
  C  C228  1  0.945169  0.999968  0.780309  1.0
  C  C229  1  0.012864  0.020348  0.760033  1.0
  C  C230  1  0.512856  0.020350  0.760031  1.0
  C  C231  1  0.057024  0.092620  0.778294  1.0
  C  C232  1  0.557018  0.092620  0.778293  1.0
  C  C233  1  0.073856  0.227664  0.833229  1.0
  C  C234  1  0.573848  0.227664  0.833229  1.0
  C  C235  1  0.038094  0.966525  0.717750  1.0
  C  C236  1  0.538086  0.966525  0.717749  1.0
  C  C237  1  0.333303  0.071351  0.882182  1.0
  C  C238  1  0.833296  0.071352  0.882185  1.0
  C  C239  1  0.264305  0.026813  0.900227  1.0
  C  C240  1  0.764298  0.026816  0.900230  1.0
  C  C241  1  0.197736  0.055534  0.883841  1.0
  C  C242  1  0.697729  0.055535  0.883843  1.0
  C  C243  1  0.133878  0.013612  0.900883  1.0
  C  C244  1  0.633871  0.013614  0.900885  1.0
  C  C245  1  0.134369  0.941079  0.934631  1.0
  C  C246  1  0.634361  0.941083  0.934634  1.0
  C  C247  1  0.201352  0.912938  0.951056  1.0
  C  C248  1  0.701344  0.912943  0.951060  1.0
  C  C249  1  0.265030  0.955664  0.934421  1.0
  C  C250  1  0.765022  0.955669  0.934425  1.0
  C  C251  1  0.066620  0.895979  0.952449  1.0
  C  C252  1  0.566611  0.895982  0.952452  1.0
  C  C253  1  0.505376  0.886719  0.922796  1.0
  C  C254  1  0.000000  0.886718  0.922795  1.0
  C  C255  1  0.441945  0.843757  0.939775  1.0
  C  C256  1  0.941935  0.843758  0.939774  1.0
  C  C257  1  0.437277  0.809359  0.987165  1.0
  C  C258  1  0.937269  0.809358  0.987164  1.0
  C  C259  1  0.498069  0.817628  0.016683  1.0
  C  C260  1  0.998062  0.817624  0.016681  1.0
  C  C261  1  0.061722  0.859814  0.999512  1.0
  C  C262  1  0.561713  0.859820  0.999515  1.0
  C  C263  1  0.368253  0.765853  0.006385  1.0
  C  C264  1  0.868245  0.765854  0.006384  1.0
  C  C265  1  0.276268  0.655410  0.980289  1.0
  C  C266  1  0.776260  0.655409  0.980290  1.0
  C  C267  1  0.253460  0.591227  0.945017  1.0
  C  C268  1  0.753453  0.591226  0.945017  1.0
  C  C269  1  0.184692  0.549211  0.948009  1.0
  C  C270  1  0.684684  0.549209  0.948010  1.0
  C  C271  1  0.139151  0.568142  0.986869  1.0
  C  C272  1  0.639144  0.568140  0.986870  1.0
  C  C273  1  0.162972  0.629345  0.022751  1.0
  C  C274  1  0.662964  0.629344  0.022751  1.0
  C  C275  1  0.231183  0.674220  0.019341  1.0
  C  C276  1  0.731175  0.674219  0.019341  1.0
  C  C277  1  0.157624  0.485130  0.909829  1.0
  C  C278  1  0.657617  0.485128  0.909830  1.0
  C  C279  1  0.115461  0.647006  0.065358  1.0
  C  C280  1  0.615453  0.647006  0.065358  1.0
  C  C281  1  0.030928  0.645839  0.683879  1.0
  C  C282  1  0.530921  0.645839  0.683879  1.0
  C  C283  1  0.463405  0.625164  0.662866  1.0
  C  C284  1  0.963398  0.625164  0.662865  1.0
  C  C285  1  0.420674  0.550676  0.680547  1.0
  C  C286  1  0.920667  0.550676  0.680547  1.0
  C  C287  1  0.444774  0.500004  0.720228  1.0
  C  C288  1  0.944766  0.500004  0.720227  1.0
  C  C289  1  0.012526  0.520285  0.740159  1.0
  C  C290  1  0.512519  0.520285  0.740159  1.0
  C  C291  1  0.056631  0.592578  0.721673  1.0
  C  C292  1  0.556623  0.592578  0.721673  1.0
  C  C293  1  0.073493  0.727723  0.666705  1.0
  C  C294  1  0.573485  0.727723  0.666705  1.0
  C  C295  1  0.037891  0.466451  0.782343  1.0
  C  C296  1  0.537883  0.466451  0.782343  1.0
  C  C297  1  0.332639  0.571085  0.618724  1.0
  C  C298  1  0.832632  0.571084  0.618723  1.0
  C  C299  1  0.263909  0.526131  0.600694  1.0
  C  C300  1  0.763902  0.526131  0.600693  1.0
  C  C301  1  0.197095  0.554204  0.617162  1.0
  C  C302  1  0.697089  0.554206  0.617160  1.0
  C  C303  1  0.133482  0.512298  0.599948  1.0
  C  C304  1  0.633475  0.512301  0.599946  1.0
  C  C305  1  0.134419  0.440430  0.565921  1.0
  C  C306  1  0.634411  0.440431  0.565920  1.0
  C  C307  1  0.201638  0.412876  0.549445  1.0
  C  C308  1  0.701630  0.412875  0.549445  1.0
  C  C309  1  0.265089  0.455536  0.566291  1.0
  C  C310  1  0.765082  0.455533  0.566291  1.0
  C  C311  1  0.066878  0.395486  0.547873  1.0
  C  C312  1  0.566870  0.395488  0.547873  1.0
  C  C313  1  0.505438  0.385459  0.577506  1.0
  C  C314  1  0.000000  0.385456  0.577506  1.0
  C  C315  1  0.442171  0.342708  0.560371  1.0
  C  C316  1  0.942164  0.342705  0.560371  1.0
  C  C317  1  0.437873  0.309120  0.512866  1.0
  C  C318  1  0.937866  0.309118  0.512866  1.0
  C  C319  1  0.498867  0.318146  0.483367  1.0
  C  C320  1  0.998860  0.318145  0.483367  1.0
  C  C321  1  0.062356  0.360199  0.500663  1.0
  C  C322  1  0.562347  0.360200  0.500663  1.0
  C  C323  1  0.368980  0.265883  0.493529  1.0
  C  C324  1  0.868973  0.265881  0.493529  1.0
  C  C325  1  0.276580  0.155360  0.519265  1.0
  C  C326  1  0.776572  0.155361  0.519265  1.0
  C  C327  1  0.253261  0.090821  0.554372  1.0
  C  C328  1  0.753253  0.090822  0.554373  1.0
  C  C329  1  0.184567  0.048731  0.551077  1.0
  C  C330  1  0.684559  0.048732  0.551077  1.0
  C  C331  1  0.139743  0.067770  0.511954  1.0
  C  C332  1  0.639734  0.067773  0.511955  1.0
  C  C333  1  0.164159  0.129203  0.476173  1.0
  C  C334  1  0.664150  0.129205  0.476173  1.0
  C  C335  1  0.232228  0.174229  0.479967  1.0
  C  C336  1  0.732220  0.174231  0.479967  1.0
  C  C337  1  0.157034  0.984386  0.589215  1.0
  C  C338  1  0.657026  0.984387  0.589215  1.0
  C  C339  1  0.117541  0.146923  0.433190  1.0
  C  C340  1  0.617532  0.146925  0.433191  1.0
  C  C341  1  0.468561  0.854250  0.183793  1.0
  C  C342  1  0.968553  0.854249  0.183792  1.0
  C  C343  1  0.035972  0.875050  0.162436  1.0
  C  C344  1  0.535965  0.875048  0.162438  1.0
  C  C345  1  0.078772  0.949450  0.179894  1.0
  C  C346  1  0.578765  0.949448  0.179897  1.0
  C  C347  1  0.054813  0.000011  0.219689  1.0
  C  C348  1  0.554805  0.000009  0.219692  1.0
  C  C349  1  0.487124  0.979632  0.239965  1.0
  C  C350  1  0.987117  0.979632  0.239963  1.0
  C  C351  1  0.442964  0.907360  0.221704  1.0
  C  C352  1  0.942956  0.907361  0.221703  1.0
  C  C353  1  0.426133  0.772317  0.166768  1.0
  C  C354  1  0.926125  0.772317  0.166767  1.0
  C  C355  1  0.461894  0.033456  0.282246  1.0
  C  C356  1  0.961887  0.033456  0.282245  1.0
  C  C357  1  0.166690  0.928621  0.117816  1.0
  C  C358  1  0.666683  0.928622  0.117820  1.0
  C  C359  1  0.235687  0.973158  0.099770  1.0
  C  C360  1  0.735680  0.973160  0.099774  1.0
  C  C361  1  0.302257  0.944440  0.116157  1.0
  C  C362  1  0.802250  0.944442  0.116160  1.0
  C  C363  1  0.366114  0.986362  0.099114  1.0
  C  C364  1  0.866107  0.986365  0.099116  1.0
  C  C365  1  0.365623  0.058891  0.065364  1.0
  C  C366  1  0.865615  0.058895  0.065367  1.0
  C  C367  1  0.298639  0.087028  0.048938  1.0
  C  C368  1  0.798630  0.087033  0.048942  1.0
  C  C369  1  0.234961  0.044302  0.065574  1.0
  C  C370  1  0.734953  0.044306  0.065578  1.0
  C  C371  1  0.433371  0.103993  0.047546  1.0
  C  C372  1  0.933363  0.103997  0.047548  1.0
  C  C373  1  0.994617  0.113254  0.077202  1.0
  C  C374  1  0.494609  0.113253  0.077200  1.0
  C  C375  1  0.058049  0.156214  0.060222  1.0
  C  C376  1  0.558040  0.156215  0.060221  1.0
  C  C377  1  0.062714  0.190618  0.012833  1.0
  C  C378  1  0.562706  0.190617  0.012831  1.0
  C  C379  1  0.001919  0.182355  0.983317  1.0
  C  C380  1  0.501912  0.182351  0.983315  1.0
  C  C381  1  0.438269  0.140160  0.000484  1.0
  C  C382  1  0.938259  0.140165  0.000487  1.0
  C  C383  1  0.131738  0.234122  0.993612  1.0
  C  C384  1  0.631730  0.234122  0.993611  1.0
  C  C385  1  0.223718  0.344577  0.019704  1.0
  C  C386  1  0.723710  0.344576  0.019704  1.0
  C  C387  1  0.246523  0.408762  0.054976  1.0
  C  C388  1  0.746516  0.408760  0.054976  1.0
  C  C389  1  0.315292  0.450781  0.051984  1.0
  C  C390  1  0.815284  0.450780  0.051984  1.0
  C  C391  1  0.360829  0.431859  0.013121  1.0
  C  C392  1  0.860822  0.431857  0.013122  1.0
  C  C393  1  0.337012  0.370653  0.977241  1.0
  C  C394  1  0.837004  0.370651  0.977241  1.0
  C  C395  1  0.268803  0.325772  0.980652  1.0
  C  C396  1  0.768795  0.325771  0.980652  1.0
  C  C397  1  0.342359  0.514860  0.090164  1.0
  C  C398  1  0.842352  0.514859  0.090164  1.0
  C  C399  1  0.384524  0.352995  0.934635  1.0
  C  C400  1  0.884517  0.352994  0.934635  1.0
  O  O401  1  0.368904  0.246226  0.310274  1.0
  O  O402  1  0.868896  0.246226  0.310274  1.0
  O  O403  1  0.447152  0.227020  0.370193  1.0
  O  O404  1  0.947144  0.227019  0.370193  1.0
  O  O405  1  0.144500  0.476763  0.337763  1.0
  O  O406  1  0.644492  0.476763  0.337763  1.0
  O  O407  1  0.156530  0.804642  0.473090  1.0
  O  O408  1  0.656522  0.804643  0.473090  1.0
  O  O409  1  0.368733  0.789018  0.595738  1.0
  O  O410  1  0.868726  0.789019  0.595737  1.0
  O  O411  1  0.438072  0.911293  0.570143  1.0
  O  O412  1  0.938062  0.911298  0.570144  1.0
  O  O413  1  0.410400  0.030269  0.406635  1.0
  O  O414  1  0.910391  0.030271  0.406635  1.0
  O  O415  1  0.394065  0.538607  0.212836  1.0
  O  O416  1  0.894057  0.538607  0.212836  1.0
  O  O417  1  0.009685  0.569920  0.189337  1.0
  O  O418  1  0.509677  0.569919  0.189337  1.0
  O  O419  1  0.296771  0.053631  0.382836  1.0
  O  O420  1  0.796763  0.053631  0.382835  1.0
  O  O421  1  0.131501  0.253871  0.810126  1.0
  O  O422  1  0.631493  0.253871  0.810126  1.0
  O  O423  1  0.053028  0.272819  0.870115  1.0
  O  O424  1  0.553020  0.272819  0.870114  1.0
  O  O425  1  0.356102  0.023106  0.838789  1.0
  O  O426  1  0.856095  0.023104  0.838793  1.0
  O  O427  1  0.343335  0.695236  0.973023  1.0
  O  O428  1  0.843327  0.695235  0.973022  1.0
  O  O429  1  0.128428  0.711250  0.094199  1.0
  O  O430  1  0.628420  0.711249  0.094199  1.0
  O  O431  1  0.059919  0.588613  0.068692  1.0
  O  O432  1  0.559911  0.588611  0.068693  1.0
  O  O433  1  0.090310  0.468974  0.906225  1.0
  O  O434  1  0.590303  0.468973  0.906225  1.0
  O  O435  1  0.106153  0.961388  0.712701  1.0
  O  O436  1  0.606146  0.961387  0.712701  1.0
  O  O437  1  0.490509  0.930249  0.689608  1.0
  O  O438  1  0.990501  0.930250  0.689608  1.0
  O  O439  1  0.203936  0.448440  0.881369  1.0
  O  O440  1  0.703928  0.448438  0.881369  1.0
  O  O441  1  0.131084  0.753754  0.689720  1.0
  O  O442  1  0.631076  0.753753  0.689720  1.0
  O  O443  1  0.052837  0.772961  0.629801  1.0
  O  O444  1  0.552829  0.772960  0.629800  1.0
  O  O445  1  0.355487  0.523217  0.662231  1.0
  O  O446  1  0.855480  0.523217  0.662231  1.0
  O  O447  1  0.343458  0.195334  0.526904  1.0
  O  O448  1  0.843451  0.195333  0.526904  1.0
  O  O449  1  0.131255  0.210959  0.404257  1.0
  O  O450  1  0.631247  0.210960  0.404257  1.0
  O  O451  1  0.061923  0.088672  0.429846  1.0
  O  O452  1  0.561913  0.088676  0.429847  1.0
  O  O453  1  0.089590  0.969709  0.593360  1.0
  O  O454  1  0.589581  0.969711  0.593360  1.0
  O  O455  1  0.105924  0.461374  0.787158  1.0
  O  O456  1  0.605917  0.461374  0.787158  1.0
  O  O457  1  0.490305  0.430059  0.810656  1.0
  O  O458  1  0.990297  0.430059  0.810656  1.0
  O  O459  1  0.203218  0.946343  0.617158  1.0
  O  O460  1  0.703210  0.946341  0.617157  1.0
  O  O461  1  0.368487  0.746111  0.189870  1.0
  O  O462  1  0.868479  0.746111  0.189870  1.0
  O  O463  1  0.446961  0.727164  0.129882  1.0
  O  O464  1  0.946952  0.727163  0.129881  1.0
  O  O465  1  0.143889  0.976873  0.161207  1.0
  O  O466  1  0.643883  0.976871  0.161212  1.0
  O  O467  1  0.156653  0.304746  0.026972  1.0
  O  O468  1  0.656645  0.304745  0.026972  1.0
  O  O469  1  0.371567  0.288740  0.905798  1.0
  O  O470  1  0.871559  0.288740  0.905798  1.0
  O  O471  1  0.440057  0.411402  0.931295  1.0
  O  O472  1  0.940050  0.411400  0.931296  1.0
  O  O473  1  0.409674  0.531010  0.093770  1.0
  O  O474  1  0.909667  0.531009  0.093770  1.0
  O  O475  1  0.393835  0.038594  0.287294  1.0
  O  O476  1  0.893828  0.038594  0.287293  1.0
  O  O477  1  0.009480  0.069734  0.310386  1.0
  O  O478  1  0.509471  0.069735  0.310386  1.0
  O  O479  1  0.296049  0.551549  0.118625  1.0
  O  O480  1  0.796041  0.551548  0.118625  1.0
