# generated using pymatgen
data_ZnH8C17(O2F3)2
_symmetry_space_group_name_H-M   'P 1'
_cell_length_a   14.58400000
_cell_length_b   18.82000000
_cell_length_c   20.51900000
_cell_angle_alpha   106.98300000
_cell_angle_beta   90.00000000
_cell_angle_gamma   90.00000000
_symmetry_Int_Tables_number   1
_chemical_formula_structural   ZnH8C17(O2F3)2
_chemical_formula_sum   'Zn8 H64 C136 O32 F48'
_cell_volume   5386.27045929
_cell_formula_units_Z   8
loop_
 _symmetry_equiv_pos_site_id
 _symmetry_equiv_pos_as_xyz
  1  'x, y, z'
loop_
 _atom_site_type_symbol
 _atom_site_label
 _atom_site_symmetry_multiplicity
 _atom_site_fract_x
 _atom_site_fract_y
 _atom_site_fract_z
 _atom_site_occupancy
  Zn  Zn1  1  0.322325  0.500664  0.994602  1.0
  Zn  Zn2  1  0.817389  0.489494  0.986235  1.0
  Zn  Zn3  1  0.325246  0.975288  0.529241  1.0
  Zn  Zn4  1  0.819921  0.965509  0.521213  1.0
  Zn  Zn5  1  0.175921  0.488962  0.025432  1.0
  Zn  Zn6  1  0.670917  0.477706  0.016999  1.0
  Zn  Zn7  1  0.173285  0.012228  0.488403  1.0
  Zn  Zn8  1  0.667796  0.002851  0.481314  1.0
  H  H9  1  0.469187  0.592672  0.166663  1.0
  H  H10  1  0.000000  0.602843  0.160578  1.0
  H  H11  1  0.073110  0.622279  0.277948  1.0
  H  H12  1  0.545275  0.614239  0.278359  1.0
  H  H13  1  0.310930  0.519371  0.350952  1.0
  H  H14  1  0.810796  0.529960  0.329054  1.0
  H  H15  1  0.235643  0.500464  0.240332  1.0
  H  H16  1  0.754367  0.514496  0.212821  1.0
  H  H17  1  0.433161  0.715499  0.382500  1.0
  H  H18  1  0.903604  0.717856  0.377822  1.0
  H  H19  1  0.974490  0.845806  0.412944  1.0
  H  H20  1  0.514932  0.835558  0.419815  1.0
  H  H21  1  0.224356  0.767039  0.479145  1.0
  H  H22  1  0.740387  0.730207  0.489375  1.0
  H  H23  1  0.164068  0.639788  0.446854  1.0
  H  H24  1  0.659146  0.610810  0.454727  1.0
  H  H25  1  0.511420  0.909686  0.344063  1.0
  H  H26  1  0.965616  0.925318  0.340361  1.0
  H  H27  1  0.052595  0.904017  0.228890  1.0
  H  H28  1  0.566938  0.890482  0.226654  1.0
  H  H29  1  0.314377  0.981999  0.175912  1.0
  H  H30  1  0.806788  0.996648  0.155160  1.0
  H  H31  1  0.258545  0.997534  0.292298  1.0
  H  H32  1  0.731210  0.000000  0.265685  1.0
  H  H33  1  0.408390  0.796080  0.126075  1.0
  H  H34  1  0.928544  0.802548  0.125028  1.0
  H  H35  1  0.018459  0.681449  0.086914  1.0
  H  H36  1  0.468960  0.668199  0.090782  1.0
  H  H37  1  0.245234  0.784218  0.016181  1.0
  H  H38  1  0.719293  0.747518  0.025766  1.0
  H  H39  1  0.166322  0.904673  0.051608  1.0
  H  H40  1  0.658812  0.875009  0.058517  1.0
  H  H41  1  0.988336  0.373392  0.849776  1.0
  H  H42  1  0.524378  0.386711  0.845132  1.0
  H  H43  1  0.448318  0.365077  0.733400  1.0
  H  H44  1  0.922805  0.353084  0.732060  1.0
  H  H45  1  0.185703  0.444893  0.681378  1.0
  H  H46  1  0.684790  0.456199  0.659597  1.0
  H  H47  1  0.241010  0.461509  0.798037  1.0
  H  H48  1  0.759992  0.475180  0.770317  1.0
  H  H49  1  0.090601  0.257883  0.631737  1.0
  H  H50  1  0.560773  0.262557  0.629350  1.0
  H  H51  1  0.479728  0.142215  0.591029  1.0
  H  H52  1  0.000000  0.130394  0.596403  1.0
  H  H53  1  0.255035  0.247178  0.520279  1.0
  H  H54  1  0.769032  0.211431  0.531409  1.0
  H  H55  1  0.335442  0.367014  0.556154  1.0
  H  H56  1  0.830997  0.338391  0.563832  1.0
  H  H57  1  0.026842  0.053989  0.669254  1.0
  H  H58  1  0.477701  0.064222  0.664133  1.0
  H  H59  1  0.421452  0.083604  0.781404  1.0
  H  H60  1  0.939515  0.075044  0.780631  1.0
  H  H61  1  0.185213  0.982404  0.854452  1.0
  H  H62  1  0.674359  0.993445  0.833232  1.0
  H  H63  1  0.261223  0.964059  0.744173  1.0
  H  H64  1  0.730772  0.977701  0.717110  1.0
  H  H65  1  0.063292  0.176057  0.885254  1.0
  H  H66  1  0.581241  0.180027  0.880273  1.0
  H  H67  1  0.522552  0.308450  0.916252  1.0
  H  H68  1  0.973529  0.297145  0.924695  1.0
  H  H69  1  0.272881  0.231519  0.984471  1.0
  H  H70  1  0.747069  0.193349  0.994755  1.0
  H  H71  1  0.331782  0.103691  0.951608  1.0
  H  H72  1  0.825987  0.072829  0.958070  1.0
  C  C73  1  0.299914  0.535181  0.129529  1.0
  C  C74  1  0.838691  0.546492  0.109151  1.0
  C  C75  1  0.346226  0.546628  0.196725  1.0
  C  C76  1  0.875992  0.558163  0.179243  1.0
  C  C77  1  0.434251  0.578060  0.207844  1.0
  C  C78  1  0.963464  0.587905  0.197886  1.0
  C  C79  1  0.477091  0.589609  0.270706  1.0
  C  C80  1  0.995073  0.598052  0.263943  1.0
  C  C81  1  0.433513  0.569929  0.323996  1.0
  C  C82  1  0.941131  0.577868  0.312558  1.0
  C  C83  1  0.346399  0.537136  0.311943  1.0
  C  C84  1  0.854386  0.547046  0.293373  1.0
  C  C85  1  0.303215  0.525891  0.249200  1.0
  C  C86  1  0.822107  0.537933  0.227561  1.0
  C  C87  1  0.486166  0.579692  0.391532  1.0
  C  C88  1  0.982535  0.589779  0.384185  1.0
  C  C89  1  0.419855  0.580621  0.451702  1.0
  C  C90  1  0.911855  0.584090  0.439738  1.0
  C  C91  1  0.064891  0.526224  0.377025  1.0
  C  C92  1  0.550430  0.510393  0.378414  1.0
  C  C93  1  0.034693  0.668692  0.408663  1.0
  C  C94  1  0.540695  0.653255  0.413850  1.0
  C  C95  1  0.500759  0.718008  0.405624  1.0
  C  C96  1  0.971650  0.728166  0.400434  1.0
  C  C97  1  0.016138  0.800482  0.419841  1.0
  C  C98  1  0.546881  0.785663  0.426049  1.0
  C  C99  1  0.104386  0.814801  0.447592  1.0
  C  C100  1  0.634658  0.790093  0.455084  1.0
  C  C101  1  0.156153  0.755801  0.457042  1.0
  C  C102  1  0.673331  0.726391  0.465463  1.0
  C  C103  1  0.121678  0.683701  0.438344  1.0
  C  C104  1  0.626831  0.658841  0.445371  1.0
  C  C105  1  0.145955  0.890691  0.467106  1.0
  C  C106  1  0.685789  0.861962  0.473955  1.0
  C  C107  1  0.343981  0.966763  0.396181  1.0
  C  C108  1  0.795984  0.981704  0.377084  1.0
  C  C109  1  0.380593  0.954258  0.325755  1.0
  C  C110  1  0.842284  0.970466  0.309866  1.0
  C  C111  1  0.467974  0.924481  0.306852  1.0
  C  C112  1  0.930631  0.939607  0.299029  1.0
  C  C113  1  0.499297  0.914463  0.240746  1.0
  C  C114  1  0.973701  0.928243  0.236297  1.0
  C  C115  1  0.445154  0.934730  0.192268  1.0
  C  C116  1  0.930118  0.947516  0.182770  1.0
  C  C117  1  0.358202  0.965015  0.211522  1.0
  C  C118  1  0.842517  0.979478  0.194420  1.0
  C  C119  1  0.326264  0.974125  0.277437  1.0
  C  C120  1  0.799116  0.990617  0.257122  1.0
  C  C121  1  0.487221  0.924081  0.120963  1.0
  C  C122  1  0.983497  0.937781  0.115554  1.0
  C  C123  1  0.417467  0.930497  0.065159  1.0
  C  C124  1  0.918652  0.937660  0.054954  1.0
  C  C125  1  0.059563  0.000000  0.129177  1.0
  C  C126  1  0.558022  0.988703  0.129838  1.0
  C  C127  1  0.047397  0.863569  0.093109  1.0
  C  C128  1  0.529300  0.845501  0.095997  1.0
  C  C129  1  0.476564  0.785876  0.103686  1.0
  C  C130  1  0.995948  0.799249  0.101483  1.0
  C  C131  1  0.051205  0.731001  0.080569  1.0
  C  C132  1  0.510622  0.713646  0.084174  1.0
  C  C133  1  0.138667  0.725509  0.050899  1.0
  C  C134  1  0.599078  0.699577  0.056801  1.0
  C  C135  1  0.178411  0.788843  0.040525  1.0
  C  C136  1  0.650974  0.758686  0.047684  1.0
  C  C137  1  0.133251  0.856983  0.061074  1.0
  C  C138  1  0.616446  0.830813  0.066581  1.0
  C  C139  1  0.188515  0.653000  0.031494  1.0
  C  C140  1  0.640445  0.623661  0.037569  1.0
  C  C141  1  0.155322  0.431289  0.902069  1.0
  C  C142  1  0.694307  0.442501  0.881777  1.0
  C  C143  1  0.119015  0.418195  0.831492  1.0
  C  C144  1  0.648293  0.430903  0.814474  1.0
  C  C145  1  0.031834  0.388014  0.812498  1.0
  C  C146  1  0.559746  0.400453  0.803683  1.0
  C  C147  1  0.000805  0.377327  0.746209  1.0
  C  C148  1  0.516931  0.388918  0.740845  1.0
  C  C149  1  0.055064  0.397311  0.697647  1.0
  C  C150  1  0.561054  0.407666  0.687277  1.0
  C  C151  1  0.141801  0.428040  0.717020  1.0
  C  C152  1  0.648829  0.439286  0.698900  1.0
  C  C153  1  0.173444  0.437802  0.783096  1.0
  C  C154  1  0.691980  0.450538  0.761667  1.0
  C  C155  1  0.013214  0.386299  0.626182  1.0
  C  C156  1  0.508030  0.398237  0.620067  1.0
  C  C157  1  0.083916  0.391828  0.570611  1.0
  C  C158  1  0.573683  0.397542  0.559547  1.0
  C  C159  1  0.443928  0.467822  0.633387  1.0
  C  C160  1  0.932580  0.451096  0.634564  1.0
  C  C161  1  0.453471  0.324682  0.597607  1.0
  C  C162  1  0.959952  0.308034  0.601465  1.0
  C  C163  1  0.022425  0.248111  0.609312  1.0
  C  C164  1  0.493423  0.259924  0.605827  1.0
  C  C165  1  0.447735  0.192093  0.584789  1.0
  C  C166  1  0.977113  0.176135  0.589836  1.0
  C  C167  1  0.360358  0.187462  0.555091  1.0
  C  C168  1  0.888580  0.162739  0.562507  1.0
  C  C169  1  0.321706  0.251194  0.544753  1.0
  C  C170  1  0.837405  0.222140  0.553295  1.0
  C  C171  1  0.367720  0.318955  0.565521  1.0
  C  C172  1  0.872770  0.293965  0.572029  1.0
  C  C173  1  0.309483  0.115408  0.535622  1.0
  C  C174  1  0.846289  0.087236  0.543357  1.0
  C  C175  1  0.196772  0.997597  0.632925  1.0
  C  C176  1  0.646584  0.009094  0.613115  1.0
  C  C177  1  0.150166  0.009030  0.699970  1.0
  C  C178  1  0.608814  0.020500  0.683089  1.0
  C  C179  1  0.061762  0.039763  0.710636  1.0
  C  C180  1  0.521012  0.049666  0.701551  1.0
  C  C181  1  0.018495  0.050966  0.773280  1.0
  C  C182  1  0.489260  0.059805  0.767606  1.0
  C  C183  1  0.061996  0.031550  0.826742  1.0
  C  C184  1  0.543436  0.040336  0.816494  1.0
  C  C185  1  0.149664  0.999741  0.815237  1.0
  C  C186  1  0.630490  0.010051  0.797447  1.0
  C  C187  1  0.193283  0.988853  0.752704  1.0
  C  C188  1  0.662819  0.000792  0.731628  1.0
  C  C189  1  0.008540  0.040549  0.893752  1.0
  C  C190  1  0.502409  0.052922  0.888435  1.0
  C  C191  1  0.073960  0.040467  0.954231  1.0
  C  C192  1  0.573951  0.047895  0.943551  1.0
  C  C193  1  0.431476  0.989134  0.882497  1.0
  C  C194  1  0.932578  0.971691  0.879200  1.0
  C  C195  1  0.460919  0.131813  0.912505  1.0
  C  C196  1  0.944606  0.114608  0.916812  1.0
  C  C197  1  0.996005  0.179155  0.908936  1.0
  C  C198  1  0.513659  0.190871  0.903571  1.0
  C  C199  1  0.480575  0.263412  0.923367  1.0
  C  C200  1  0.940856  0.247375  0.930601  1.0
  C  C201  1  0.392907  0.278372  0.952016  1.0
  C  C202  1  0.853565  0.252582  0.960486  1.0
  C  C203  1  0.340687  0.219736  0.961761  1.0
  C  C204  1  0.813817  0.188970  0.970316  1.0
  C  C205  1  0.374345  0.147353  0.942760  1.0
  C  C206  1  0.858917  0.120827  0.949043  1.0
  C  C207  1  0.352637  0.354693  0.972231  1.0
  C  C208  1  0.804039  0.325216  0.980489  1.0
  O  O209  1  0.343226  0.557917  0.085498  1.0
  O  O210  1  0.887054  0.566731  0.065044  1.0
  O  O211  1  0.220611  0.503863  0.120319  1.0
  O  O212  1  0.759943  0.516380  0.097514  1.0
  O  O213  1  0.225847  0.896220  0.493045  1.0
  O  O214  1  0.766845  0.863874  0.499320  1.0
  O  O215  1  0.100503  0.945172  0.456895  1.0
  O  O216  1  0.644900  0.916991  0.462748  1.0
  O  O217  1  0.391653  0.945701  0.440089  1.0
  O  O218  1  0.839026  0.958379  0.420841  1.0
  O  O219  1  0.266297  0.998640  0.408189  1.0
  O  O220  1  0.716954  0.000000  0.386607  1.0
  O  O221  1  0.269747  0.650472  0.006366  1.0
  O  O222  1  0.720588  0.617875  0.012040  1.0
  O  O223  1  0.146254  0.598209  0.042147  1.0
  O  O224  1  0.594349  0.569444  0.047726  1.0
  O  O225  1  0.107015  0.410941  0.946130  1.0
  O  O226  1  0.650724  0.419851  0.925734  1.0
  O  O227  1  0.233244  0.462762  0.914113  1.0
  O  O228  1  0.773556  0.473919  0.891148  1.0
  O  O229  1  0.228328  0.113605  0.510526  1.0
  O  O230  1  0.765752  0.082317  0.518603  1.0
  O  O231  1  0.350931  0.060238  0.546232  1.0
  O  O232  1  0.892014  0.032476  0.552794  1.0
  O  O233  1  0.154034  0.020517  0.588788  1.0
  O  O234  1  0.598720  0.029869  0.569077  1.0
  O  O235  1  0.275919  0.965926  0.623951  1.0
  O  O236  1  0.725198  0.978734  0.601532  1.0
  O  O237  1  0.273041  0.360924  0.998707  1.0
  O  O238  1  0.722968  0.327877  0.000000  1.0
  O  O239  1  0.398841  0.408847  0.962060  1.0
  O  O240  1  0.846370  0.380016  0.969955  1.0
  F  F241  1  0.380744  0.513358  0.445765  1.0
  F  F242  1  0.879641  0.514175  0.431387  1.0
  F  F243  1  0.462657  0.601613  0.512811  1.0
  F  F244  1  0.949465  0.607564  0.502714  1.0
  F  F245  1  0.350376  0.629980  0.454328  1.0
  F  F246  1  0.837523  0.627921  0.439935  1.0
  F  F247  1  0.098688  0.522497  0.437646  1.0
  F  F248  1  0.588894  0.502240  0.436250  1.0
  F  F249  1  0.137877  0.535823  0.339108  1.0
  F  F250  1  0.620694  0.515790  0.336208  1.0
  F  F251  1  0.028757  0.458763  0.344864  1.0
  F  F252  1  0.504717  0.446748  0.347807  1.0
  F  F253  1  0.383560  0.000000  0.075754  1.0
  F  F254  1  0.878405  0.000000  0.061668  1.0
  F  F255  1  0.455409  0.861980  0.000000  1.0
  F  F256  1  0.961925  0.870446  0.000000  1.0
  F  F257  1  0.344392  0.884611  0.062053  1.0
  F  F258  1  0.850091  0.887159  0.050261  1.0
  F  F259  1  0.098055  0.000000  0.071591  1.0
  F  F260  1  0.592387  0.994718  0.070105  1.0
  F  F261  1  0.129202  0.999110  0.171185  1.0
  F  F262  1  0.630826  0.979174  0.168078  1.0
  F  F263  1  0.011084  0.046729  0.160098  1.0
  F  F264  1  0.514454  0.030998  0.162657  1.0
  F  F265  1  0.117975  0.461431  0.580571  1.0
  F  F266  1  0.612642  0.465027  0.566160  1.0
  F  F267  1  0.046870  0.370842  0.507376  1.0
  F  F268  1  0.530203  0.377233  0.498781  1.0
  F  F269  1  0.156286  0.345796  0.569356  1.0
  F  F270  1  0.643032  0.347701  0.555340  1.0
  F  F271  1  0.407251  0.476137  0.575104  1.0
  F  F272  1  0.898478  0.456213  0.574471  1.0
  F  F273  1  0.372894  0.462602  0.675216  1.0
  F  F274  1  0.859401  0.442741  0.672886  1.0
  F  F275  1  0.489003  0.531567  0.664435  1.0
  F  F276  1  0.971654  0.517340  0.667032  1.0
  F  F277  1  0.114435  0.973495  0.947484  1.0
  F  F278  1  0.609516  0.978661  0.933476  1.0
  F  F279  1  0.031143  0.107906  0.005572  1.0
  F  F280  1  0.537817  0.116859  0.997436  1.0
  F  F281  1  0.142621  0.090975  0.958816  1.0
  F  F282  1  0.645683  0.094396  0.944607  1.0
  F  F283  1  0.397187  0.986464  0.943338  1.0
  F  F284  1  0.895394  0.961259  0.936424  1.0
  F  F285  1  0.358445  0.996666  0.843694  1.0
  F  F286  1  0.861519  0.979591  0.838359  1.0
  F  F287  1  0.474919  0.946156  0.852089  1.0
  F  F288  1  0.981701  0.932115  0.846479  1.0
