# generated using pymatgen
data_Zn2H8C17O10
_symmetry_space_group_name_H-M   'P 1'
_cell_length_a   22.76200000
_cell_length_b   13.56000000
_cell_length_c   19.94300000
_cell_angle_alpha   89.84300000
_cell_angle_beta   90.07100000
_cell_angle_gamma   90.24300000
_symmetry_Int_Tables_number   1
_chemical_formula_structural   Zn2H8C17O10
_chemical_formula_sum   'Zn16 H64 C136 O80'
_cell_volume   6155.37808793
_cell_formula_units_Z   8
loop_
 _symmetry_equiv_pos_site_id
 _symmetry_equiv_pos_as_xyz
  1  'x, y, z'
loop_
 _atom_site_type_symbol
 _atom_site_label
 _atom_site_symmetry_multiplicity
 _atom_site_fract_x
 _atom_site_fract_y
 _atom_site_fract_z
 _atom_site_occupancy
  Zn  Zn1  1  0.355289  0.991975  0.455778  1.0
  Zn  Zn2  1  0.855299  0.991974  0.455779  1.0
  Zn  Zn3  1  0.444887  0.070481  0.361178  1.0
  Zn  Zn4  1  0.944897  0.070479  0.361178  1.0
  Zn  Zn5  1  0.394789  0.008035  0.955832  1.0
  Zn  Zn6  1  0.894799  0.008035  0.955832  1.0
  Zn  Zn7  1  0.304808  0.932292  0.861019  1.0
  Zn  Zn8  1  0.804818  0.932294  0.861018  1.0
  Zn  Zn9  1  0.142464  0.492075  0.041271  1.0
  Zn  Zn10  1  0.642474  0.492075  0.041271  1.0
  Zn  Zn11  1  0.052920  0.567120  0.136047  1.0
  Zn  Zn12  1  0.552929  0.567120  0.136048  1.0
  Zn  Zn13  1  0.106874  0.507788  0.541518  1.0
  Zn  Zn14  1  0.606885  0.507788  0.541516  1.0
  Zn  Zn15  1  0.195125  0.429445  0.636270  1.0
  Zn  Zn16  1  0.695136  0.429445  0.636269  1.0
  H  H17  1  0.324778  0.273078  0.281231  1.0
  H  H18  1  0.824791  0.273079  0.281231  1.0
  H  H19  1  0.255923  0.257968  0.482385  1.0
  H  H20  1  0.755940  0.257970  0.482387  1.0
  H  H21  1  0.211578  0.503567  0.355359  1.0
  H  H22  1  0.711592  0.503567  0.355361  1.0
  H  H23  1  0.197487  0.508920  0.237457  1.0
  H  H24  1  0.697499  0.508920  0.237457  1.0
  H  H25  1  0.255931  0.535108  0.178573  1.0
  H  H26  1  0.755944  0.535109  0.178575  1.0
  H  H27  1  0.356101  0.544652  0.200800  1.0
  H  H28  1  0.856113  0.544652  0.200802  1.0
  H  H29  1  0.462552  0.786334  0.269574  1.0
  H  H30  1  0.962565  0.786332  0.269579  1.0
  H  H31  1  0.283009  0.758204  0.337510  1.0
  H  H32  1  0.783022  0.758202  0.337514  1.0
  H  H33  1  0.424673  0.728636  0.780230  1.0
  H  H34  1  0.924694  0.728645  0.780225  1.0
  H  H35  1  0.492403  0.740362  0.982102  1.0
  H  H36  1  0.992413  0.740366  0.982102  1.0
  H  H37  1  0.037047  0.496448  0.854751  1.0
  H  H38  1  0.537050  0.496442  0.854751  1.0
  H  H39  1  0.052313  0.494441  0.736231  1.0
  H  H40  1  0.552318  0.494449  0.736227  1.0
  H  H41  1  0.994002  0.468718  0.676999  1.0
  H  H42  1  0.494006  0.468725  0.676995  1.0
  H  H43  1  0.393943  0.455101  0.698333  1.0
  H  H44  1  0.893953  0.455110  0.698342  1.0
  H  H45  1  0.288463  0.213755  0.770138  1.0
  H  H46  1  0.788474  0.213756  0.770136  1.0
  H  H47  1  0.468299  0.244052  0.837026  1.0
  H  H48  1  0.968307  0.244059  0.837035  1.0
  H  H49  1  0.173659  0.772946  0.215389  1.0
  H  H50  1  0.673671  0.772945  0.215390  1.0
  H  H51  1  0.242874  0.759250  0.014438  1.0
  H  H52  1  0.742886  0.759249  0.014438  1.0
  H  H53  1  0.288728  0.000000  0.141732  1.0
  H  H54  1  0.788739  0.000000  0.141731  1.0
  H  H55  1  0.302145  0.008864  0.259356  1.0
  H  H56  1  0.802157  0.008865  0.259355  1.0
  H  H57  1  0.243803  0.033667  0.318348  1.0
  H  H58  1  0.743815  0.033667  0.318348  1.0
  H  H59  1  0.143832  0.044828  0.297878  1.0
  H  H60  1  0.643844  0.044828  0.297879  1.0
  H  H61  1  0.037978  0.285612  0.228013  1.0
  H  H62  1  0.537988  0.285611  0.228014  1.0
  H  H63  1  0.216917  0.257341  0.158790  1.0
  H  H64  1  0.716928  0.257341  0.158791  1.0
  H  H65  1  0.075213  0.226352  0.715974  1.0
  H  H66  1  0.575226  0.226347  0.715972  1.0
  H  H67  1  0.005417  0.241505  0.515086  1.0
  H  H68  1  0.505427  0.241505  0.515086  1.0
  H  H69  1  0.461642  0.994638  0.641711  1.0
  H  H70  1  0.961654  0.994636  0.641711  1.0
  H  H71  1  0.448031  0.988662  0.759506  1.0
  H  H72  1  0.948039  0.988665  0.759508  1.0
  H  H73  1  0.506539  0.963408  0.818460  1.0
  H  H74  1  0.000000  0.963410  0.818460  1.0
  H  H75  1  0.106355  0.953369  0.797611  1.0
  H  H76  1  0.606366  0.953361  0.797612  1.0
  H  H77  1  0.212378  0.712844  0.728832  1.0
  H  H78  1  0.712392  0.712845  0.728823  1.0
  H  H79  1  0.033270  0.740622  0.659348  1.0
  H  H80  1  0.533282  0.740621  0.659345  1.0
  C  C81  1  0.268515  0.393171  0.310776  1.0
  C  C82  1  0.768530  0.393173  0.310777  1.0
  C  C83  1  0.297895  0.303941  0.321038  1.0
  C  C84  1  0.797909  0.303942  0.321038  1.0
  C  C85  1  0.292452  0.254568  0.382348  1.0
  C  C86  1  0.792465  0.254568  0.382348  1.0
  C  C87  1  0.259165  0.295212  0.434223  1.0
  C  C88  1  0.759182  0.295215  0.434225  1.0
  C  C89  1  0.230431  0.384647  0.423715  1.0
  C  C90  1  0.730445  0.384647  0.423716  1.0
  C  C91  1  0.234080  0.433657  0.361692  1.0
  C  C92  1  0.734093  0.433657  0.361693  1.0
  C  C93  1  0.323206  0.159246  0.393168  1.0
  C  C94  1  0.823219  0.159247  0.393168  1.0
  C  C95  1  0.196008  0.427431  0.479670  1.0
  C  C96  1  0.696021  0.427426  0.479671  1.0
  C  C97  1  0.244897  0.521330  0.231393  1.0
  C  C98  1  0.744909  0.521330  0.231394  1.0
  C  C99  1  0.312475  0.647843  0.267966  1.0
  C  C100  1  0.812487  0.647844  0.267967  1.0
  C  C101  1  0.359267  0.612072  0.230008  1.0
  C  C102  1  0.859279  0.612072  0.230011  1.0
  C  C103  1  0.413301  0.662424  0.231146  1.0
  C  C104  1  0.913313  0.662421  0.231151  1.0
  C  C105  1  0.420432  0.748188  0.268950  1.0
  C  C106  1  0.920444  0.748187  0.268954  1.0
  C  C107  1  0.373340  0.782514  0.307454  1.0
  C  C108  1  0.873353  0.782509  0.307460  1.0
  C  C109  1  0.319545  0.732155  0.307317  1.0
  C  C110  1  0.819558  0.732153  0.307321  1.0
  C  C111  1  0.463993  0.621231  0.193126  1.0
  C  C112  1  0.964004  0.621232  0.193128  1.0
  C  C113  1  0.380971  0.871207  0.350292  1.0
  C  C114  1  0.880983  0.871204  0.350297  1.0
  C  C115  1  0.480595  0.607834  0.809976  1.0
  C  C116  1  0.980612  0.607841  0.809974  1.0
  C  C117  1  0.451255  0.697038  0.820231  1.0
  C  C118  1  0.951272  0.697045  0.820228  1.0
  C  C119  1  0.456455  0.745453  0.881766  1.0
  C  C120  1  0.956468  0.745458  0.881764  1.0
  C  C121  1  0.489350  0.703811  0.933817  1.0
  C  C122  1  0.989362  0.703816  0.933816  1.0
  C  C123  1  0.017925  0.614377  0.923372  1.0
  C  C124  1  0.517933  0.614373  0.923372  1.0
  C  C125  1  0.014620  0.566351  0.861144  1.0
  C  C126  1  0.514625  0.566346  0.861144  1.0
  C  C127  1  0.426031  0.840896  0.892838  1.0
  C  C128  1  0.926042  0.840898  0.892836  1.0
  C  C129  1  0.052011  0.571086  0.979698  1.0
  C  C130  1  0.552021  0.571085  0.979697  1.0
  C  C131  1  0.004973  0.481467  0.729935  1.0
  C  C132  1  0.504978  0.481469  0.729932  1.0
  C  C133  1  0.438114  0.353267  0.766490  1.0
  C  C134  1  0.938123  0.353275  0.766498  1.0
  C  C135  1  0.391054  0.388130  0.728299  1.0
  C  C136  1  0.891064  0.388138  0.728306  1.0
  C  C137  1  0.337136  0.337441  0.730163  1.0
  C  C138  1  0.837147  0.337441  0.730162  1.0
  C  C139  1  0.330463  0.252221  0.768900  1.0
  C  C140  1  0.830473  0.252225  0.768903  1.0
  C  C141  1  0.377852  0.218691  0.807572  1.0
  C  C142  1  0.877862  0.218694  0.807574  1.0
  C  C143  1  0.431522  0.269396  0.806714  1.0
  C  C144  1  0.931531  0.269401  0.806720  1.0
  C  C145  1  0.286137  0.377702  0.691769  1.0
  C  C146  1  0.786148  0.377703  0.691769  1.0
  C  C147  1  0.370461  0.130366  0.851082  1.0
  C  C148  1  0.870471  0.130367  0.851083  1.0
  C  C149  1  0.230869  0.892931  0.186035  1.0
  C  C150  1  0.730881  0.892930  0.186036  1.0
  C  C151  1  0.200863  0.803959  0.175664  1.0
  C  C152  1  0.700875  0.803958  0.175665  1.0
  C  C153  1  0.206047  0.755059  0.114360  1.0
  C  C154  1  0.706058  0.755058  0.114362  1.0
  C  C155  1  0.239785  0.796040  0.062621  1.0
  C  C156  1  0.739796  0.796038  0.062621  1.0
  C  C157  1  0.269203  0.885215  0.073228  1.0
  C  C158  1  0.769214  0.885214  0.073228  1.0
  C  C159  1  0.265732  0.933699  0.135262  1.0
  C  C160  1  0.765744  0.933698  0.135263  1.0
  C  C161  1  0.174662  0.659810  0.103512  1.0
  C  C162  1  0.674673  0.659809  0.103513  1.0
  C  C163  1  0.304119  0.928188  0.017302  1.0
  C  C164  1  0.804130  0.928186  0.017303  1.0
  C  C165  1  0.254752  0.020628  0.265492  1.0
  C  C166  1  0.754764  0.020628  0.265491  1.0
  C  C167  1  0.187422  0.147404  0.229385  1.0
  C  C168  1  0.687435  0.147407  0.229388  1.0
  C  C169  1  0.140745  0.111974  0.268146  1.0
  C  C170  1  0.640757  0.111974  0.268147  1.0
  C  C171  1  0.086939  0.162325  0.267132  1.0
  C  C172  1  0.586949  0.162319  0.267129  1.0
  C  C173  1  0.079940  0.247597  0.228643  1.0
  C  C174  1  0.579952  0.247598  0.228645  1.0
  C  C175  1  0.126895  0.281688  0.189483  1.0
  C  C176  1  0.626905  0.281685  0.189482  1.0
  C  C177  1  0.180480  0.231468  0.189513  1.0
  C  C178  1  0.680490  0.231467  0.189512  1.0
  C  C179  1  0.036132  0.121911  0.305892  1.0
  C  C180  1  0.536142  0.121910  0.305892  1.0
  C  C181  1  0.118978  0.369751  0.146006  1.0
  C  C182  1  0.618989  0.369751  0.146007  1.0
  C  C183  1  0.018783  0.105621  0.686323  1.0
  C  C184  1  0.518795  0.105618  0.686321  1.0
  C  C185  1  0.048134  0.195328  0.676176  1.0
  C  C186  1  0.548146  0.195325  0.676175  1.0
  C  C187  1  0.042472  0.244889  0.614957  1.0
  C  C188  1  0.542482  0.244890  0.614957  1.0
  C  C189  1  0.008850  0.204081  0.563156  1.0
  C  C190  1  0.508861  0.204080  0.563156  1.0
  C  C191  1  0.480099  0.114257  0.573575  1.0
  C  C192  1  0.980110  0.114254  0.573575  1.0
  C  C193  1  0.484103  0.064908  0.635437  1.0
  C  C194  1  0.984114  0.064908  0.635438  1.0
  C  C195  1  0.073417  0.340460  0.604070  1.0
  C  C196  1  0.573429  0.340459  0.604070  1.0
  C  C197  1  0.445118  0.071653  0.517723  1.0
  C  C198  1  0.945128  0.071652  0.517723  1.0
  C  C199  1  0.495435  0.976854  0.765613  1.0
  C  C200  1  0.995443  0.976858  0.765614  1.0
  C  C201  1  0.062726  0.850487  0.729643  1.0
  C  C202  1  0.562738  0.850486  0.729640  1.0
  C  C203  1  0.109446  0.886170  0.768206  1.0
  C  C204  1  0.609458  0.886164  0.768206  1.0
  C  C205  1  0.163346  0.836139  0.767366  1.0
  C  C206  1  0.663357  0.836128  0.767369  1.0
  C  C207  1  0.170368  0.750723  0.729316  1.0
  C  C208  1  0.670381  0.750723  0.729308  1.0
  C  C209  1  0.123369  0.716452  0.690242  1.0
  C  C210  1  0.623380  0.716450  0.690237  1.0
  C  C211  1  0.069721  0.766521  0.690048  1.0
  C  C212  1  0.569732  0.766518  0.690047  1.0
  C  C213  1  0.214186  0.877647  0.805602  1.0
  C  C214  1  0.714197  0.877642  0.805602  1.0
  C  C215  1  0.131101  0.628432  0.646958  1.0
  C  C216  1  0.631113  0.628438  0.646946  1.0
  O  O217  1  0.359992  0.129235  0.350158  1.0
  O  O218  1  0.860004  0.129234  0.350158  1.0
  O  O219  1  0.309505  0.110996  0.447026  1.0
  O  O220  1  0.809519  0.111000  0.447028  1.0
  O  O221  1  0.201831  0.390014  0.537832  1.0
  O  O222  1  0.701845  0.390009  0.537833  1.0
  O  O223  1  0.160533  0.499161  0.466503  1.0
  O  O224  1  0.660547  0.499160  0.466505  1.0
  O  O225  1  0.277419  0.435799  0.248790  1.0
  O  O226  1  0.777430  0.435799  0.248790  1.0
  O  O227  1  0.257454  0.604712  0.271663  1.0
  O  O228  1  0.757466  0.604711  0.271665  1.0
  O  O229  1  0.457643  0.546812  0.155366  1.0
  O  O230  1  0.957653  0.546815  0.155366  1.0
  O  O231  1  0.514918  0.662498  0.200053  1.0
  O  O232  1  0.000000  0.662499  0.200053  1.0
  O  O233  1  0.424156  0.928526  0.339564  1.0
  O  O234  1  0.924169  0.928520  0.339572  1.0
  O  O235  1  0.342333  0.883276  0.397178  1.0
  O  O236  1  0.842341  0.883277  0.397179  1.0
  O  O237  1  0.389329  0.871825  0.849847  1.0
  O  O238  1  0.889341  0.871828  0.849845  1.0
  O  O239  1  0.439924  0.888209  0.946886  1.0
  O  O240  1  0.939935  0.888211  0.946885  1.0
  O  O241  1  0.045499  0.607775  0.037820  1.0
  O  O242  1  0.545508  0.607772  0.037820  1.0
  O  O243  1  0.087845  0.499952  0.966771  1.0
  O  O244  1  0.587855  0.499950  0.966771  1.0
  O  O245  1  0.472048  0.566181  0.747725  1.0
  O  O246  1  0.972067  0.566186  0.747722  1.0
  O  O247  1  0.993006  0.396853  0.769585  1.0
  O  O248  1  0.493015  0.396849  0.769578  1.0
  O  O249  1  0.292286  0.450409  0.652436  1.0
  O  O250  1  0.792296  0.450414  0.652440  1.0
  O  O251  1  0.235120  0.337047  0.700330  1.0
  O  O252  1  0.735131  0.337051  0.700332  1.0
  O  O253  1  0.326385  0.074387  0.841731  1.0
  O  O254  1  0.826394  0.074390  0.841732  1.0
  O  O255  1  0.409822  0.116833  0.897145  1.0
  O  O256  1  0.909831  0.116834  0.897146  1.0
  O  O257  1  0.137902  0.629191  0.146619  1.0
  O  O258  1  0.637911  0.629192  0.146619  1.0
  O  O259  1  0.187899  0.612274  0.049468  1.0
  O  O260  1  0.687909  0.612273  0.049468  1.0
  O  O261  1  0.297905  0.891304  0.959167  1.0
  O  O262  1  0.797915  0.891305  0.959167  1.0
  O  O263  1  0.340279  0.999358  0.030459  1.0
  O  O264  1  0.840289  0.999359  0.030459  1.0
  O  O265  1  0.222129  0.934964  0.248058  1.0
  O  O266  1  0.722141  0.934964  0.248059  1.0
  O  O267  1  0.242247  0.104357  0.225369  1.0
  O  O268  1  0.742258  0.104356  0.225368  1.0
  O  O269  1  0.042214  0.049617  0.345472  1.0
  O  O270  1  0.542225  0.049620  0.345476  1.0
  O  O271  1  0.985206  0.162388  0.297240  1.0
  O  O272  1  0.485217  0.162388  0.297241  1.0
  O  O273  1  0.075051  0.425263  0.155633  1.0
  O  O274  1  0.575062  0.425263  0.155635  1.0
  O  O275  1  0.157881  0.383428  0.099534  1.0
  O  O276  1  0.657892  0.383429  0.099535  1.0
  O  O277  1  0.110257  0.370773  0.647243  1.0
  O  O278  1  0.610268  0.370773  0.647243  1.0
  O  O279  1  0.060066  0.388544  0.550118  1.0
  O  O280  1  0.560077  0.388543  0.550118  1.0
  O  O281  1  0.450452  0.109665  0.459652  1.0
  O  O282  1  0.950462  0.109664  0.459652  1.0
  O  O283  1  0.409548  0.999677  0.530812  1.0
  O  O284  1  0.909558  0.999676  0.530812  1.0
  O  O285  1  0.027970  0.062706  0.748144  1.0
  O  O286  1  0.527981  0.062703  0.748143  1.0
  O  O287  1  0.507866  0.893396  0.725533  1.0
  O  O288  1  0.000000  0.893402  0.725532  1.0
  O  O289  1  0.207862  0.950588  0.844405  1.0
  O  O290  1  0.707872  0.950587  0.844402  1.0
  O  O291  1  0.265259  0.838002  0.797320  1.0
  O  O292  1  0.765271  0.838002  0.797319  1.0
  O  O293  1  0.174349  0.571640  0.657393  1.0
  O  O294  1  0.674368  0.571654  0.657363  1.0
  O  O295  1  0.092545  0.616289  0.599800  1.0
  O  O296  1  0.592550  0.616291  0.599796  1.0
