data_image0
_cell_length_a       18.5481
_cell_length_b       18.5481
_cell_length_c       18.5481
_cell_angle_alpha    90
_cell_angle_beta     90
_cell_angle_gamma    90

_symmetry_space_group_name_H-M    "P 1"
_symmetry_int_tables_number       1

loop_
  _symmetry_equiv_pos_as_xyz
  'x, y, z'

loop_
  _atom_site_label
  _atom_site_occupancy
  _atom_site_fract_x
  _atom_site_fract_y
  _atom_site_fract_z
  _atom_site_thermal_displace_type
  _atom_site_B_iso_or_equiv
  _atom_site_type_symbol
  Ni1      1.0000 0.00000  0.12431  0.00000  Biso   1.000  Ni
  Ni2      1.0000 0.00000  0.87569  0.00000  Biso   1.000  Ni
  Ni3      1.0000 0.50000  0.50000  0.12431  Biso   1.000  Ni
  Ni4      1.0000 0.50000  0.50000  0.87569  Biso   1.000  Ni
  Ni5      1.0000 0.37569  0.00000  0.50000  Biso   1.000  Ni
  Ni6      1.0000 0.62431  0.00000  0.50000  Biso   1.000  Ni
  Ni7      1.0000 0.37565  0.50000  0.00000  Biso   1.000  Ni
  Ni8      1.0000 0.62435  0.50000  0.00000  Biso   1.000  Ni
  Ni9      1.0000 0.00000  0.00000  0.12435  Biso   1.000  Ni
  Ni10     1.0000 0.00000  0.00000  0.87565  Biso   1.000  Ni
  Ni11     1.0000 0.50000  0.12435  0.50000  Biso   1.000  Ni
  Ni12     1.0000 0.50000  0.87565  0.50000  Biso   1.000  Ni
  H1       1.0000 0.77196  0.10807  0.27197  Biso   1.000  H
  H2       1.0000 0.22804  0.89193  0.72803  Biso   1.000  H
  H3       1.0000 0.22804  0.89193  0.27197  Biso   1.000  H
  H4       1.0000 0.77196  0.10807  0.72803  Biso   1.000  H
  H5       1.0000 0.22804  0.10807  0.72803  Biso   1.000  H
  H6       1.0000 0.77196  0.89193  0.27197  Biso   1.000  H
  H7       1.0000 0.22804  0.10807  0.27197  Biso   1.000  H
  H8       1.0000 0.77196  0.89193  0.72803  Biso   1.000  H
  H9       1.0000 0.60807  0.27197  0.27196  Biso   1.000  H
  H10      1.0000 0.39193  0.72803  0.72804  Biso   1.000  H
  H11      1.0000 0.77197  0.27196  0.10807  Biso   1.000  H
  H12      1.0000 0.22803  0.72804  0.89193  Biso   1.000  H
  H13      1.0000 0.39193  0.72803  0.27196  Biso   1.000  H
  H14      1.0000 0.60807  0.27197  0.72804  Biso   1.000  H
  H15      1.0000 0.22803  0.27196  0.10807  Biso   1.000  H
  H16      1.0000 0.77197  0.72804  0.89193  Biso   1.000  H
  H17      1.0000 0.39193  0.27197  0.72804  Biso   1.000  H
  H18      1.0000 0.60807  0.72803  0.27196  Biso   1.000  H
  H19      1.0000 0.22803  0.72804  0.10807  Biso   1.000  H
  H20      1.0000 0.77197  0.27196  0.89193  Biso   1.000  H
  H21      1.0000 0.39193  0.27197  0.27196  Biso   1.000  H
  H22      1.0000 0.60807  0.72803  0.72804  Biso   1.000  H
  H23      1.0000 0.22803  0.27196  0.89193  Biso   1.000  H
  H24      1.0000 0.77197  0.72804  0.10807  Biso   1.000  H
  H25      1.0000 0.55447  0.36880  0.21912  Biso   1.000  H
  H26      1.0000 0.44554  0.63120  0.78088  Biso   1.000  H
  H27      1.0000 0.44554  0.63120  0.21912  Biso   1.000  H
  H28      1.0000 0.55447  0.36880  0.78088  Biso   1.000  H
  H29      1.0000 0.44554  0.36880  0.21912  Biso   1.000  H
  H30      1.0000 0.55446  0.63120  0.78088  Biso   1.000  H
  H31      1.0000 0.55446  0.63120  0.21912  Biso   1.000  H
  H32      1.0000 0.44554  0.36880  0.78088  Biso   1.000  H
  H33      1.0000 0.71912  0.05446  0.36880  Biso   1.000  H
  H34      1.0000 0.28088  0.94554  0.63120  Biso   1.000  H
  H35      1.0000 0.86880  0.21912  0.05446  Biso   1.000  H
  H36      1.0000 0.13120  0.78088  0.94554  Biso   1.000  H
  H37      1.0000 0.71912  0.05446  0.63120  Biso   1.000  H
  H38      1.0000 0.28088  0.94553  0.36880  Biso   1.000  H
  H39      1.0000 0.13120  0.21912  0.94554  Biso   1.000  H
  H40      1.0000 0.86880  0.78088  0.05446  Biso   1.000  H
  H41      1.0000 0.28088  0.05447  0.36880  Biso   1.000  H
  H42      1.0000 0.71912  0.94554  0.63120  Biso   1.000  H
  H43      1.0000 0.13120  0.78088  0.05447  Biso   1.000  H
  H44      1.0000 0.86880  0.21912  0.94553  Biso   1.000  H
  H45      1.0000 0.28088  0.05446  0.63120  Biso   1.000  H
  H46      1.0000 0.71912  0.94554  0.36880  Biso   1.000  H
  H47      1.0000 0.13120  0.21912  0.05446  Biso   1.000  H
  H48      1.0000 0.86880  0.78088  0.94554  Biso   1.000  H
  H49      1.0000 0.86886  0.05451  0.21918  Biso   1.000  H
  H50      1.0000 0.13114  0.94549  0.78082  Biso   1.000  H
  H51      1.0000 0.13114  0.94549  0.21918  Biso   1.000  H
  H52      1.0000 0.86886  0.05451  0.78082  Biso   1.000  H
  H53      1.0000 0.13114  0.05451  0.78082  Biso   1.000  H
  H54      1.0000 0.86886  0.94549  0.21918  Biso   1.000  H
  H55      1.0000 0.13114  0.05451  0.21918  Biso   1.000  H
  H56      1.0000 0.86886  0.94549  0.78082  Biso   1.000  H
  H57      1.0000 0.55451  0.21918  0.36886  Biso   1.000  H
  H58      1.0000 0.44549  0.78082  0.63114  Biso   1.000  H
  H59      1.0000 0.71918  0.36886  0.05451  Biso   1.000  H
  H60      1.0000 0.28082  0.63114  0.94549  Biso   1.000  H
  H61      1.0000 0.55451  0.21918  0.63114  Biso   1.000  H
  H62      1.0000 0.44549  0.78082  0.36886  Biso   1.000  H
  H63      1.0000 0.28082  0.36886  0.05451  Biso   1.000  H
  H64      1.0000 0.71918  0.63114  0.94549  Biso   1.000  H
  H65      1.0000 0.44549  0.21918  0.63114  Biso   1.000  H
  H66      1.0000 0.55451  0.78082  0.36886  Biso   1.000  H
  H67      1.0000 0.28082  0.63114  0.05451  Biso   1.000  H
  H68      1.0000 0.71918  0.36886  0.94549  Biso   1.000  H
  H69      1.0000 0.44549  0.21918  0.36886  Biso   1.000  H
  H70      1.0000 0.55451  0.78082  0.63114  Biso   1.000  H
  H71      1.0000 0.71918  0.63114  0.05451  Biso   1.000  H
  H72      1.0000 0.28082  0.36886  0.94549  Biso   1.000  H
  C1       1.0000 0.68652  0.27983  0.18651  Biso   1.000  C
  C2       1.0000 0.31348  0.72017  0.81349  Biso   1.000  C
  C3       1.0000 0.31348  0.72017  0.18651  Biso   1.000  C
  C4       1.0000 0.68652  0.27983  0.81349  Biso   1.000  C
  C5       1.0000 0.31348  0.27983  0.18651  Biso   1.000  C
  C6       1.0000 0.68652  0.72017  0.81349  Biso   1.000  C
  C7       1.0000 0.31348  0.27983  0.81349  Biso   1.000  C
  C8       1.0000 0.68652  0.72017  0.18651  Biso   1.000  C
  C9       1.0000 0.68651  0.18652  0.27983  Biso   1.000  C
  C10      1.0000 0.31349  0.81348  0.72017  Biso   1.000  C
  C11      1.0000 0.77983  0.18651  0.18652  Biso   1.000  C
  C12      1.0000 0.22017  0.81349  0.81348  Biso   1.000  C
  C13      1.0000 0.31349  0.81348  0.27983  Biso   1.000  C
  C14      1.0000 0.68651  0.18652  0.72017  Biso   1.000  C
  C15      1.0000 0.22017  0.18651  0.81348  Biso   1.000  C
  C16      1.0000 0.77983  0.81349  0.18652  Biso   1.000  C
  C17      1.0000 0.31349  0.18652  0.27983  Biso   1.000  C
  C18      1.0000 0.68651  0.81348  0.72017  Biso   1.000  C
  C19      1.0000 0.22017  0.81349  0.18652  Biso   1.000  C
  C20      1.0000 0.77983  0.18651  0.81348  Biso   1.000  C
  C21      1.0000 0.31349  0.18652  0.72017  Biso   1.000  C
  C22      1.0000 0.68651  0.81348  0.27983  Biso   1.000  C
  C23      1.0000 0.22017  0.18651  0.18652  Biso   1.000  C
  C24      1.0000 0.77983  0.81349  0.81348  Biso   1.000  C
  C25      1.0000 0.74845  0.15653  0.24846  Biso   1.000  C
  C26      1.0000 0.25154  0.84347  0.75154  Biso   1.000  C
  C27      1.0000 0.25155  0.84347  0.24846  Biso   1.000  C
  C28      1.0000 0.74846  0.15653  0.75154  Biso   1.000  C
  C29      1.0000 0.25155  0.15653  0.75154  Biso   1.000  C
  C30      1.0000 0.74846  0.84347  0.24846  Biso   1.000  C
  C31      1.0000 0.25155  0.15653  0.24846  Biso   1.000  C
  C32      1.0000 0.74845  0.84347  0.75154  Biso   1.000  C
  C33      1.0000 0.65653  0.24846  0.24845  Biso   1.000  C
  C34      1.0000 0.34347  0.75154  0.75155  Biso   1.000  C
  C35      1.0000 0.74846  0.24845  0.15653  Biso   1.000  C
  C36      1.0000 0.25154  0.75155  0.84347  Biso   1.000  C
  C37      1.0000 0.34347  0.75154  0.24845  Biso   1.000  C
  C38      1.0000 0.65653  0.24846  0.75155  Biso   1.000  C
  C39      1.0000 0.25154  0.24845  0.15653  Biso   1.000  C
  C40      1.0000 0.74846  0.75155  0.84347  Biso   1.000  C
  C41      1.0000 0.34347  0.24846  0.75155  Biso   1.000  C
  C42      1.0000 0.65653  0.75154  0.24845  Biso   1.000  C
  C43      1.0000 0.25154  0.75155  0.15653  Biso   1.000  C
  C44      1.0000 0.74846  0.24845  0.84347  Biso   1.000  C
  C45      1.0000 0.34347  0.24846  0.24845  Biso   1.000  C
  C46      1.0000 0.65653  0.75154  0.75154  Biso   1.000  C
  C47      1.0000 0.25154  0.24846  0.84347  Biso   1.000  C
  C48      1.0000 0.74846  0.75155  0.15653  Biso   1.000  C
  C49      1.0000 0.65214  0.34201  0.15214  Biso   1.000  C
  C50      1.0000 0.34786  0.65799  0.84787  Biso   1.000  C
  C51      1.0000 0.34786  0.65799  0.15214  Biso   1.000  C
  C52      1.0000 0.65215  0.34201  0.84787  Biso   1.000  C
  C53      1.0000 0.34786  0.34201  0.15213  Biso   1.000  C
  C54      1.0000 0.65214  0.65799  0.84786  Biso   1.000  C
  C55      1.0000 0.65215  0.65799  0.15213  Biso   1.000  C
  C56      1.0000 0.34786  0.34201  0.84786  Biso   1.000  C
  C57      1.0000 0.65214  0.15214  0.34201  Biso   1.000  C
  C58      1.0000 0.34786  0.84786  0.65799  Biso   1.000  C
  C59      1.0000 0.84201  0.15214  0.15214  Biso   1.000  C
  C60      1.0000 0.15799  0.84786  0.84786  Biso   1.000  C
  C61      1.0000 0.65214  0.15214  0.65799  Biso   1.000  C
  C62      1.0000 0.34787  0.84786  0.34201  Biso   1.000  C
  C63      1.0000 0.15799  0.15213  0.84786  Biso   1.000  C
  C64      1.0000 0.84201  0.84786  0.15214  Biso   1.000  C
  C65      1.0000 0.34786  0.15214  0.34201  Biso   1.000  C
  C66      1.0000 0.65213  0.84786  0.65799  Biso   1.000  C
  C67      1.0000 0.15799  0.84786  0.15214  Biso   1.000  C
  C68      1.0000 0.84201  0.15214  0.84785  Biso   1.000  C
  C69      1.0000 0.34787  0.15215  0.65799  Biso   1.000  C
  C70      1.0000 0.65214  0.84786  0.34201  Biso   1.000  C
  C71      1.0000 0.15799  0.15213  0.15215  Biso   1.000  C
  C72      1.0000 0.84201  0.84786  0.84786  Biso   1.000  C
  C73      1.0000 0.58869  0.37781  0.17276  Biso   1.000  C
  C74      1.0000 0.41131  0.62219  0.82724  Biso   1.000  C
  C75      1.0000 0.41131  0.62219  0.17276  Biso   1.000  C
  C76      1.0000 0.58869  0.37781  0.82724  Biso   1.000  C
  C77      1.0000 0.41131  0.37781  0.17276  Biso   1.000  C
  C78      1.0000 0.58869  0.62219  0.82724  Biso   1.000  C
  C79      1.0000 0.58869  0.62219  0.17276  Biso   1.000  C
  C80      1.0000 0.41131  0.37781  0.82724  Biso   1.000  C
  C81      1.0000 0.67276  0.08869  0.37781  Biso   1.000  C
  C82      1.0000 0.32724  0.91131  0.62219  Biso   1.000  C
  C83      1.0000 0.87781  0.17276  0.08869  Biso   1.000  C
  C84      1.0000 0.12219  0.82724  0.91131  Biso   1.000  C
  C85      1.0000 0.67276  0.08869  0.62219  Biso   1.000  C
  C86      1.0000 0.32724  0.91131  0.37781  Biso   1.000  C
  C87      1.0000 0.12219  0.17276  0.91131  Biso   1.000  C
  C88      1.0000 0.87781  0.82724  0.08869  Biso   1.000  C
  C89      1.0000 0.32724  0.08869  0.37781  Biso   1.000  C
  C90      1.0000 0.67276  0.91131  0.62219  Biso   1.000  C
  C91      1.0000 0.12219  0.82724  0.08869  Biso   1.000  C
  C92      1.0000 0.87781  0.17276  0.91131  Biso   1.000  C
  C93      1.0000 0.32724  0.08869  0.62219  Biso   1.000  C
  C94      1.0000 0.67276  0.91131  0.37781  Biso   1.000  C
  C95      1.0000 0.12219  0.17276  0.08869  Biso   1.000  C
  C96      1.0000 0.87781  0.82724  0.91131  Biso   1.000  C
  C97      1.0000 0.87783  0.08870  0.17279  Biso   1.000  C
  C98      1.0000 0.12217  0.91130  0.82721  Biso   1.000  C
  C99      1.0000 0.12217  0.91130  0.17279  Biso   1.000  C
  C100     1.0000 0.87783  0.08871  0.82721  Biso   1.000  C
  C101     1.0000 0.12217  0.08870  0.82721  Biso   1.000  C
  C102     1.0000 0.87783  0.91129  0.17279  Biso   1.000  C
  C103     1.0000 0.12217  0.08871  0.17279  Biso   1.000  C
  C104     1.0000 0.87783  0.91130  0.82721  Biso   1.000  C
  C105     1.0000 0.58871  0.17279  0.37783  Biso   1.000  C
  C106     1.0000 0.41130  0.82721  0.62217  Biso   1.000  C
  C107     1.0000 0.67279  0.37783  0.08870  Biso   1.000  C
  C108     1.0000 0.32721  0.62217  0.91129  Biso   1.000  C
  C109     1.0000 0.58870  0.17279  0.62217  Biso   1.000  C
  C110     1.0000 0.41129  0.82721  0.37783  Biso   1.000  C
  C111     1.0000 0.32721  0.37783  0.08871  Biso   1.000  C
  C112     1.0000 0.67279  0.62217  0.91130  Biso   1.000  C
  C113     1.0000 0.41129  0.17279  0.62217  Biso   1.000  C
  C114     1.0000 0.58870  0.82721  0.37783  Biso   1.000  C
  C115     1.0000 0.32721  0.62217  0.08870  Biso   1.000  C
  C116     1.0000 0.67279  0.37783  0.91129  Biso   1.000  C
  C117     1.0000 0.41129  0.17279  0.37783  Biso   1.000  C
  C118     1.0000 0.58871  0.82721  0.62217  Biso   1.000  C
  C119     1.0000 0.67279  0.62217  0.08871  Biso   1.000  C
  C120     1.0000 0.32721  0.37783  0.91129  Biso   1.000  C
  N1       1.0000 0.57313  0.43015  0.12486  Biso   1.000  N
  N2       1.0000 0.42687  0.56985  0.87514  Biso   1.000  N
  N3       1.0000 0.42687  0.56985  0.12486  Biso   1.000  N
  N4       1.0000 0.57313  0.43015  0.87514  Biso   1.000  N
  N5       1.0000 0.42687  0.43015  0.12486  Biso   1.000  N
  N6       1.0000 0.57313  0.56985  0.87514  Biso   1.000  N
  N7       1.0000 0.57313  0.56985  0.12486  Biso   1.000  N
  N8       1.0000 0.42687  0.43014  0.87514  Biso   1.000  N
  N9       1.0000 0.62486  0.07313  0.43015  Biso   1.000  N
  N10      1.0000 0.37514  0.92687  0.56985  Biso   1.000  N
  N11      1.0000 0.93015  0.12486  0.07313  Biso   1.000  N
  N12      1.0000 0.06985  0.87514  0.92687  Biso   1.000  N
  N13      1.0000 0.62486  0.07313  0.56985  Biso   1.000  N
  N14      1.0000 0.37514  0.92687  0.43015  Biso   1.000  N
  N15      1.0000 0.06985  0.12486  0.92687  Biso   1.000  N
  N16      1.0000 0.93015  0.87514  0.07313  Biso   1.000  N
  N17      1.0000 0.37514  0.07313  0.43015  Biso   1.000  N
  N18      1.0000 0.62486  0.92687  0.56985  Biso   1.000  N
  N19      1.0000 0.06985  0.87514  0.07313  Biso   1.000  N
  N20      1.0000 0.93015  0.12486  0.92687  Biso   1.000  N
  N21      1.0000 0.37514  0.07313  0.56985  Biso   1.000  N
  N22      1.0000 0.62486  0.92687  0.43015  Biso   1.000  N
  N23      1.0000 0.06985  0.12486  0.07313  Biso   1.000  N
  N24      1.0000 0.93015  0.87514  0.92687  Biso   1.000  N
  N25      1.0000 0.93016  0.07313  0.12489  Biso   1.000  N
  N26      1.0000 0.06984  0.92687  0.87511  Biso   1.000  N
  N27      1.0000 0.06984  0.92687  0.12489  Biso   1.000  N
  N28      1.0000 0.93016  0.07313  0.87511  Biso   1.000  N
  N29      1.0000 0.06984  0.07313  0.87511  Biso   1.000  N
  N30      1.0000 0.93016  0.92687  0.12489  Biso   1.000  N
  N31      1.0000 0.06984  0.07313  0.12489  Biso   1.000  N
  N32      1.0000 0.93016  0.92687  0.87511  Biso   1.000  N
  N33      1.0000 0.57313  0.12489  0.43016  Biso   1.000  N
  N34      1.0000 0.42687  0.87511  0.56984  Biso   1.000  N
  N35      1.0000 0.62489  0.43016  0.07313  Biso   1.000  N
  N36      1.0000 0.37511  0.56984  0.92687  Biso   1.000  N
  N37      1.0000 0.57313  0.12489  0.56984  Biso   1.000  N
  N38      1.0000 0.42687  0.87511  0.43016  Biso   1.000  N
  N39      1.0000 0.37511  0.43016  0.07313  Biso   1.000  N
  N40      1.0000 0.62489  0.56984  0.92687  Biso   1.000  N
  N41      1.0000 0.42687  0.12489  0.56984  Biso   1.000  N
  N42      1.0000 0.57313  0.87511  0.43016  Biso   1.000  N
  N43      1.0000 0.37511  0.56984  0.07313  Biso   1.000  N
  N44      1.0000 0.62489  0.43016  0.92687  Biso   1.000  N
  N45      1.0000 0.42687  0.12489  0.43016  Biso   1.000  N
  N46      1.0000 0.57313  0.87511  0.56984  Biso   1.000  N
  N47      1.0000 0.62489  0.56984  0.07313  Biso   1.000  N
  N48      1.0000 0.37511  0.43016  0.92687  Biso   1.000  N
  O1       1.0000 0.00000  0.20518  0.00000  Biso   1.000  O
  C121     1.0000 1.00000  0.26610  1.00000  Biso   1.000  C
