# generated using pymatgen
data_CuO2
_symmetry_space_group_name_H-M   'P 1'
_cell_length_a   17.73900000
_cell_length_b   17.71900000
_cell_length_c   17.71300000
_cell_angle_alpha   96.74100000
_cell_angle_beta   96.79600000
_cell_angle_gamma   96.63900000
_symmetry_Int_Tables_number   1
_chemical_formula_structural   CuO2
_chemical_formula_sum   'Cu2 O4'
_cell_volume   5442.61592488
_cell_formula_units_Z   2
loop_
 _symmetry_equiv_pos_site_id
 _symmetry_equiv_pos_as_xyz
  1  'x, y, z'
loop_
 _atom_site_type_symbol
 _atom_site_label
 _atom_site_symmetry_multiplicity
 _atom_site_fract_x
 _atom_site_fract_y
 _atom_site_fract_z
 _atom_site_occupancy
  Cu  Cu1  1  0.855200  0.854965  0.170460  1
  Cu  Cu2  1  0.904537  0.904423  0.304356  1
  O  O3  1  0.859465  0.962663  0.150036  1
  O  O4  1  0.751446  0.857622  0.199411  1
  O  O5  1  0.962519  0.856649  0.150006  1
  O  O6  1  0.856000  0.751242  0.200461  1
