# generated using pymatgen
data_CuO2
_symmetry_space_group_name_H-M   'P 1'
_cell_length_a   17.73900000
_cell_length_b   17.71900000
_cell_length_c   17.71300000
_cell_angle_alpha   96.74100000
_cell_angle_beta   96.79600000
_cell_angle_gamma   96.63900000
_symmetry_Int_Tables_number   1
_chemical_formula_structural   CuO2
_chemical_formula_sum   'Cu2 O4'
_cell_volume   5442.61592488
_cell_formula_units_Z   2
loop_
 _symmetry_equiv_pos_site_id
 _symmetry_equiv_pos_as_xyz
  1  'x, y, z'
loop_
 _atom_site_type_symbol
 _atom_site_label
 _atom_site_symmetry_multiplicity
 _atom_site_fract_x
 _atom_site_fract_y
 _atom_site_fract_z
 _atom_site_occupancy
  Cu  Cu1  1  0.855821  0.171146  0.854309  1
  Cu  Cu2  1  0.904830  0.304952  0.903850  1
  O  O3  1  0.963328  0.150955  0.856685  1
  O  O4  1  0.856365  0.200900  0.750368  1
  O  O5  1  0.752096  0.200434  0.856528  1
  O  O6  1  0.859623  0.150361  0.961935  1
