data_image0
_cell_length_a       14.1742
_cell_length_b       14.1327
_cell_length_c       18.0987
_cell_angle_alpha    90.015
_cell_angle_beta     89.8976
_cell_angle_gamma    60.2728

_symmetry_space_group_name_H-M    "P 1"
_symmetry_int_tables_number       1

loop_
  _symmetry_equiv_pos_as_xyz
  'x, y, z'

loop_
  _atom_site_label
  _atom_site_occupancy
  _atom_site_fract_x
  _atom_site_fract_y
  _atom_site_fract_z
  _atom_site_thermal_displace_type
  _atom_site_B_iso_or_equiv
  _atom_site_type_symbol
  Sc1      1.0000 0.48856  0.25875  0.75014  Biso   1.000  Sc
  Sc2      1.0000 0.24012  0.52259  0.75016  Biso   1.000  Sc
  Sc3      1.0000 0.25453  0.25934  0.75044  Biso   1.000  Sc
  Sc4      1.0000 0.51276  0.74705  0.24998  Biso   1.000  Sc
  Sc5      1.0000 0.74591  0.51421  0.25012  Biso   1.000  Sc
  Sc6      1.0000 0.76061  0.76369  0.25103  Biso   1.000  Sc
  H1       1.0000 0.63216  0.32063  0.55755  Biso   1.000  H
  H2       1.0000 0.05137  0.62129  0.56137  Biso   1.000  H
  H3       1.0000 0.32259  0.04928  0.56419  Biso   1.000  H
  H4       1.0000 0.37450  0.67415  0.06083  Biso   1.000  H
  H5       1.0000 0.95087  0.37018  0.06148  Biso   1.000  H
  H6       1.0000 0.67414  0.94928  0.06017  Biso   1.000  H
  H7       1.0000 0.67834  0.37442  0.43629  Biso   1.000  H
  H8       1.0000 0.36962  0.95014  0.44266  Biso   1.000  H
  H9       1.0000 0.94745  0.67402  0.44157  Biso   1.000  H
  H10      1.0000 0.32696  0.62036  0.93999  Biso   1.000  H
  H11      1.0000 0.62572  0.05012  0.93924  Biso   1.000  H
  H12      1.0000 0.05130  0.31975  0.94039  Biso   1.000  H
  H13      1.0000 0.37217  0.67253  0.43901  Biso   1.000  H
  H14      1.0000 0.94957  0.36914  0.43936  Biso   1.000  H
  H15      1.0000 0.67194  0.95131  0.43855  Biso   1.000  H
  H16      1.0000 0.62947  0.31879  0.94333  Biso   1.000  H
  H17      1.0000 0.04661  0.62592  0.93782  Biso   1.000  H
  H18      1.0000 0.32332  0.04881  0.93734  Biso   1.000  H
  H19      1.0000 0.32610  0.61841  0.56036  Biso   1.000  H
  H20      1.0000 0.62532  0.04992  0.56048  Biso   1.000  H
  H21      1.0000 0.05314  0.31663  0.55891  Biso   1.000  H
  H22      1.0000 0.67701  0.37216  0.06412  Biso   1.000  H
  H23      1.0000 0.37198  0.94790  0.05808  Biso   1.000  H
  H24      1.0000 0.94617  0.67621  0.05924  Biso   1.000  H
  H25      1.0000 0.17225  0.73687  0.72303  Biso   1.000  H
  H26      1.0000 0.90754  0.83133  0.22691  Biso   1.000  H
  C1       1.0000 0.57586  0.39732  0.53103  Biso   1.000  C
  C2       1.0000 0.02844  0.56702  0.53400  Biso   1.000  C
  C3       1.0000 0.39906  0.02688  0.53640  Biso   1.000  C
  C4       1.0000 0.42946  0.59635  0.03479  Biso   1.000  C
  C5       1.0000 0.97241  0.42536  0.03392  Biso   1.000  C
  C6       1.0000 0.59781  0.97140  0.03248  Biso   1.000  C
  C7       1.0000 0.60130  0.42695  0.46383  Biso   1.000  C
  C8       1.0000 0.42493  0.97237  0.46900  Biso   1.000  C
  C9       1.0000 0.97119  0.59607  0.46787  Biso   1.000  C
  C10      1.0000 0.40316  0.56687  0.96793  Biso   1.000  C
  C11      1.0000 0.57101  0.02698  0.96561  Biso   1.000  C
  C12      1.0000 0.02769  0.39761  0.96686  Biso   1.000  C
  C13      1.0000 0.42826  0.59551  0.46530  Biso   1.000  C
  C14      1.0000 0.97239  0.42359  0.46657  Biso   1.000  C
  C15      1.0000 0.59598  0.97297  0.46684  Biso   1.000  C
  C16      1.0000 0.57426  0.39624  0.96964  Biso   1.000  C
  C17      1.0000 0.02507  0.57080  0.96550  Biso   1.000  C
  C18      1.0000 0.40004  0.02619  0.96461  Biso   1.000  C
  C19      1.0000 0.40283  0.56585  0.53247  Biso   1.000  C
  C20      1.0000 0.57017  0.02730  0.53429  Biso   1.000  C
  C21      1.0000 0.02950  0.39465  0.53276  Biso   1.000  C
  C22      1.0000 0.60048  0.42566  0.03658  Biso   1.000  C
  C23      1.0000 0.42688  0.97061  0.03150  Biso   1.000  C
  C24      1.0000 0.96986  0.59842  0.03261  Biso   1.000  C
  C25      1.0000 0.44799  0.43584  0.63792  Biso   1.000  C
  C26      1.0000 0.47660  0.46676  0.56581  Biso   1.000  C
  C27      1.0000 0.11966  0.43562  0.63768  Biso   1.000  C
  C28      1.0000 0.05772  0.46625  0.56686  Biso   1.000  C
  C29      1.0000 0.44236  0.11553  0.64080  Biso   1.000  C
  C30      1.0000 0.47163  0.05448  0.56952  Biso   1.000  C
  C31      1.0000 0.55837  0.55847  0.14012  Biso   1.000  C
  C32      1.0000 0.52830  0.52588  0.06955  Biso   1.000  C
  C33      1.0000 0.88329  0.55606  0.13896  Biso   1.000  C
  C34      1.0000 0.94340  0.52577  0.06723  Biso   1.000  C
  C35      1.0000 0.55597  0.88279  0.13753  Biso   1.000  C
  C36      1.0000 0.52584  0.94305  0.06584  Biso   1.000  C
  C37      1.0000 0.55734  0.55898  0.35981  Biso   1.000  C
  C38      1.0000 0.52775  0.52622  0.43059  Biso   1.000  C
  C39      1.0000 0.55263  0.88545  0.36187  Biso   1.000  C
  C40      1.0000 0.52348  0.94521  0.43384  Biso   1.000  C
  C41      1.0000 0.88051  0.55639  0.36317  Biso   1.000  C
  C42      1.0000 0.94290  0.52441  0.43381  Biso   1.000  C
  C43      1.0000 0.44605  0.43604  0.86314  Biso   1.000  C
  C44      1.0000 0.47555  0.46677  0.93491  Biso   1.000  C
  C45      1.0000 0.44126  0.11727  0.86074  Biso   1.000  C
  C46      1.0000 0.47187  0.05476  0.93130  Biso   1.000  C
  C47      1.0000 0.11565  0.43972  0.86106  Biso   1.000  C
  C48      1.0000 0.05435  0.47012  0.93232  Biso   1.000  C
  O1       1.0000 0.51702  0.34372  0.66629  Biso   1.000  O
  O2       1.0000 0.14673  0.50116  0.66501  Biso   1.000  O
  O3       1.0000 0.35046  0.14106  0.66988  Biso   1.000  O
  O4       1.0000 0.49170  0.65123  0.16802  Biso   1.000  O
  O5       1.0000 0.85952  0.48720  0.16764  Biso   1.000  O
  O6       1.0000 0.64787  0.85650  0.16479  Biso   1.000  O
  O7       1.0000 0.64961  0.49339  0.33113  Biso   1.000  O
  O8       1.0000 0.48439  0.86073  0.33378  Biso   1.000  O
  O9       1.0000 0.85225  0.64963  0.33681  Biso   1.000  O
  O10      1.0000 0.35406  0.50074  0.83584  Biso   1.000  O
  O11      1.0000 0.50807  0.14306  0.83237  Biso   1.000  O
  O12      1.0000 0.14025  0.34689  0.83262  Biso   1.000  O
  O13      1.0000 0.49050  0.65151  0.33199  Biso   1.000  O
  O14      1.0000 0.85840  0.48708  0.33326  Biso   1.000  O
  O15      1.0000 0.64319  0.86151  0.33286  Biso   1.000  O
  O16      1.0000 0.51584  0.34512  0.83340  Biso   1.000  O
  O17      1.0000 0.14117  0.50601  0.83284  Biso   1.000  O
  O18      1.0000 0.34863  0.14385  0.83275  Biso   1.000  O
  O19      1.0000 0.35733  0.50156  0.66680  Biso   1.000  O
  O20      1.0000 0.50938  0.14130  0.66865  Biso   1.000  O
  O21      1.0000 0.14265  0.34357  0.66675  Biso   1.000  O
  O22      1.0000 0.65051  0.49279  0.16861  Biso   1.000  O
  O23      1.0000 0.48666  0.86050  0.16716  Biso   1.000  O
  O24      1.0000 0.85825  0.64744  0.16736  Biso   1.000  O
  O25      1.0000 0.33327  0.33683  0.74989  Biso   1.000  O
  O26      1.0000 0.66795  0.67016  0.24992  Biso   1.000  O
  O27      1.0000 0.17018  0.67700  0.74717  Biso   1.000  O
  O28      1.0000 0.84360  0.83565  0.24928  Biso   1.000  O
  N1       1.0000 0.64925  0.19982  0.75009  Biso   1.000  N
  N2       1.0000 0.74004  0.16653  0.75006  Biso   1.000  N
  O29      1.0000 0.83565  0.13147  0.75002  Biso   1.000  O
