# generated using pymatgen
data_NiN3Cl2
_symmetry_space_group_name_H-M   'P 1'
_cell_length_a   8.03712000
_cell_length_b   14.41680000
_cell_length_c   14.41670000
_cell_angle_alpha   116.64100000
_cell_angle_beta   100.70900000
_cell_angle_gamma   100.71000000
_symmetry_Int_Tables_number   1
_chemical_formula_structural   NiN3Cl2
_chemical_formula_sum   'Ni1 N3 Cl2'
_cell_volume   1396.51017976
_cell_formula_units_Z   1
loop_
 _symmetry_equiv_pos_site_id
 _symmetry_equiv_pos_as_xyz
  1  'x, y, z'
loop_
 _atom_site_type_symbol
 _atom_site_label
 _atom_site_symmetry_multiplicity
 _atom_site_fract_x
 _atom_site_fract_y
 _atom_site_fract_z
 _atom_site_occupancy
  Ni  Ni1  1  0.789360  0.289370  0.078720  1
  N  N2  1  0.600840  0.363880  0.066870  1
  N  N3  1  0.966040  0.203000  0.066880  1
  N  N4  1  0.869020  0.369060  0.238040  1
  Cl  Cl5  1  0.575920  0.151880  0.075900  1
  Cl  Cl6  1  1.000000  0.424060  0.075940  1
