# generated using pymatgen
data_HC3N3Cl
_symmetry_space_group_name_H-M   'P 1'
_cell_length_a   8.03712000
_cell_length_b   14.41680000
_cell_length_c   14.41670000
_cell_angle_alpha   116.64100000
_cell_angle_beta   100.70900000
_cell_angle_gamma   100.71000000
_symmetry_Int_Tables_number   1
_chemical_formula_structural   HC3N3Cl
_chemical_formula_sum   'H6 C18 N18 Cl6'
_cell_volume   1396.51017976
_cell_formula_units_Z   6
loop_
 _symmetry_equiv_pos_site_id
 _symmetry_equiv_pos_as_xyz
  1  'x, y, z'
loop_
 _atom_site_type_symbol
 _atom_site_label
 _atom_site_symmetry_multiplicity
 _atom_site_fract_x
 _atom_site_fract_y
 _atom_site_fract_z
 _atom_site_occupancy
  H  H1  1  0.314210  0.000020  0.077980  1
  H  H2  1  0.685790  0.999980  0.922020  1
  H  H3  1  0.263930  0.578070  0.078070  1
  H  H4  1  0.736070  0.421930  0.921930  1
  H  H5  1  0.314210  0.577990  0.500030  1
  H  H6  1  0.685790  0.422010  0.499970  1
  C  C7  1  0.135540  0.095350  0.069920  1
  C  C8  1  0.864460  0.904650  0.930090  1
  C  C9  1  0.565510  0.430030  0.025360  1
  C  C10  1  0.434490  0.569970  0.974650  1
  C  C11  1  0.040160  0.474650  0.404680  1
  C  C12  1  0.959850  0.525350  0.595330  1
  C  C13  1  0.135530  0.569920  0.595350  1
  C  C14  1  0.864460  0.430080  0.404650  1
  C  C15  1  0.434490  0.474650  0.069970  1
  C  C16  1  0.565510  0.525350  0.930030  1
  C  C17  1  0.959850  0.095330  0.025350  1
  C  C18  1  0.040150  0.904670  0.974650  1
  C  C19  1  0.180590  0.000020  0.046130  1
  C  C20  1  0.819400  0.999980  0.953860  1
  C  C21  1  0.365710  0.546220  0.046210  1
  C  C22  1  0.634290  0.453780  0.953780  1
  C  C23  1  0.180590  0.546140  0.500020  1
  C  C24  1  0.819410  0.453860  0.499970  1
  N  N25  1  0.237010  0.203040  0.136070  1
  N  N26  1  0.763000  0.796960  0.863930  1
  N  N27  1  0.600840  0.363880  0.066870  1
  N  N28  1  0.399160  0.636120  0.933130  1
  N  N29  1  0.033960  0.433120  0.297000  1
  N  N30  1  0.966040  0.566880  0.703010  1
  N  N31  1  0.762990  0.363930  0.296960  1
  N  N32  1  0.237000  0.636070  0.703040  1
  N  N33  1  0.399170  0.433130  0.136120  1
  N  N34  1  0.600840  0.566870  0.863880  1
  N  N35  1  0.966040  0.203000  0.066880  1
  N  N36  1  0.033960  0.796990  0.933120  1
  N  N37  1  0.130980  0.261950  0.130950  1
  N  N38  1  0.869010  0.738040  0.869050  1
  N  N39  1  0.500000  0.369050  0.130950  1
  N  N40  1  0.500000  0.630950  0.869050  1
  N  N41  1  0.869020  0.369060  0.238040  1
  N  N42  1  0.130980  0.630940  0.761950  1
  Cl  Cl43  1  0.424080  0.424100  0.348120  1
  Cl  Cl44  1  0.575920  0.575900  0.651880  1
  Cl  Cl45  1  0.575920  0.151880  0.075900  1
  Cl  Cl46  1  0.424080  0.848120  0.924100  1
  Cl  Cl47  1  0.000000  0.424060  0.075940  1
  Cl  Cl48  1  0.000000  0.575940  0.924060  1
