# generated using pymatgen
data_Ni
_symmetry_space_group_name_H-M   'P 1'
_cell_length_a   8.03712000
_cell_length_b   14.41680000
_cell_length_c   14.41670000
_cell_angle_alpha   116.64100000
_cell_angle_beta   100.70900000
_cell_angle_gamma   100.71000000
_symmetry_Int_Tables_number   1
_chemical_formula_structural   Ni
_chemical_formula_sum   Ni6
_cell_volume   1396.51017976
_cell_formula_units_Z   6
loop_
 _symmetry_equiv_pos_site_id
 _symmetry_equiv_pos_as_xyz
  1  'x, y, z'
loop_
 _atom_site_type_symbol
 _atom_site_label
 _atom_site_symmetry_multiplicity
 _atom_site_fract_x
 _atom_site_fract_y
 _atom_site_fract_z
 _atom_site_occupancy
  Ni  Ni1  1  0.500000  0.289410  0.210590  1
  Ni  Ni2  1  0.500000  0.710590  0.789410  1
  Ni  Ni3  1  0.789360  0.289370  0.078720  1
  Ni  Ni4  1  0.210630  0.710630  0.921270  1
  Ni  Ni5  1  0.210640  0.421280  0.210630  1
  Ni  Ni6  1  0.789360  0.578720  0.789370  1
