# generated using pymatgen
data_NiN4
_symmetry_space_group_name_H-M   'P 1'
_cell_length_a   18.54810000
_cell_length_b   18.54810000
_cell_length_c   18.54810000
_cell_angle_alpha   90.00000000
_cell_angle_beta   90.00000000
_cell_angle_gamma   90.00000000
_symmetry_Int_Tables_number   1
_chemical_formula_structural   NiN4
_chemical_formula_sum   'Ni1 N4'
_cell_volume   6381.14019164
_cell_formula_units_Z   1
loop_
 _symmetry_equiv_pos_site_id
 _symmetry_equiv_pos_as_xyz
  1  'x, y, z'
loop_
 _atom_site_type_symbol
 _atom_site_label
 _atom_site_symmetry_multiplicity
 _atom_site_fract_x
 _atom_site_fract_y
 _atom_site_fract_z
 _atom_site_occupancy
  Ni  Ni1  1  0.624350  0.500000  0.000000  1
  N  N2  1  0.624890  0.430160  0.073130  1
  N  N3  1  0.624890  0.569840  -0.073130  1
  N  N4  1  0.624890  0.430160  -0.073130  1
  N  N5  1  0.624890  0.569840  0.073130  1
