# generated using pymatgen
data_H3C5N2
_symmetry_space_group_name_H-M   'P 1'
_cell_length_a   18.54810000
_cell_length_b   18.54810000
_cell_length_c   18.54810000
_cell_angle_alpha   90.00000000
_cell_angle_beta   90.00000000
_cell_angle_gamma   90.00000000
_symmetry_Int_Tables_number   1
_chemical_formula_structural   H3C5N2
_chemical_formula_sum   'H72 C120 N48'
_cell_volume   6381.14019164
_cell_formula_units_Z   24
loop_
 _symmetry_equiv_pos_site_id
 _symmetry_equiv_pos_as_xyz
  1  'x, y, z'
loop_
 _atom_site_type_symbol
 _atom_site_label
 _atom_site_symmetry_multiplicity
 _atom_site_fract_x
 _atom_site_fract_y
 _atom_site_fract_z
 _atom_site_occupancy
  H  H1  1  0.771960  0.108070  0.271970  1
  H  H2  1  0.228040  0.891930  0.728030  1
  H  H3  1  0.228040  0.891930  0.271970  1
  H  H4  1  0.771960  0.108070  0.728030  1
  H  H5  1  0.228040  0.108070  0.728030  1
  H  H6  1  0.771960  0.891930  0.271970  1
  H  H7  1  0.228040  0.108070  0.271970  1
  H  H8  1  0.771960  0.891930  0.728030  1
  H  H9  1  0.608070  0.271970  0.271960  1
  H  H10  1  0.391930  0.728030  0.728040  1
  H  H11  1  0.771970  0.271960  0.108070  1
  H  H12  1  0.228030  0.728040  0.891930  1
  H  H13  1  0.391930  0.728030  0.271960  1
  H  H14  1  0.608070  0.271970  0.728040  1
  H  H15  1  0.228030  0.271960  0.108070  1
  H  H16  1  0.771970  0.728040  0.891930  1
  H  H17  1  0.391930  0.271970  0.728040  1
  H  H18  1  0.608070  0.728030  0.271960  1
  H  H19  1  0.228030  0.728040  0.108070  1
  H  H20  1  0.771970  0.271960  0.891930  1
  H  H21  1  0.391930  0.271970  0.271960  1
  H  H22  1  0.608070  0.728030  0.728040  1
  H  H23  1  0.228030  0.271960  0.891930  1
  H  H24  1  0.771970  0.728040  0.108070  1
  H  H25  1  0.554470  0.368800  0.219120  1
  H  H26  1  0.445540  0.631200  0.780880  1
  H  H27  1  0.445540  0.631200  0.219120  1
  H  H28  1  0.554470  0.368800  0.780880  1
  H  H29  1  0.445540  0.368800  0.219120  1
  H  H30  1  0.554460  0.631200  0.780880  1
  H  H31  1  0.554460  0.631200  0.219120  1
  H  H32  1  0.445540  0.368800  0.780880  1
  H  H33  1  0.719120  0.054460  0.368800  1
  H  H34  1  0.280880  0.945540  0.631200  1
  H  H35  1  0.868800  0.219120  0.054460  1
  H  H36  1  0.131200  0.780880  0.945540  1
  H  H37  1  0.719120  0.054460  0.631200  1
  H  H38  1  0.280880  0.945530  0.368800  1
  H  H39  1  0.131200  0.219120  0.945540  1
  H  H40  1  0.868800  0.780880  0.054460  1
  H  H41  1  0.280880  0.054470  0.368800  1
  H  H42  1  0.719120  0.945540  0.631200  1
  H  H43  1  0.131200  0.780880  0.054470  1
  H  H44  1  0.868800  0.219120  0.945530  1
  H  H45  1  0.280880  0.054460  0.631200  1
  H  H46  1  0.719120  0.945540  0.368800  1
  H  H47  1  0.131200  0.219120  0.054460  1
  H  H48  1  0.868800  0.780880  0.945540  1
  H  H49  1  0.868860  0.054510  0.219180  1
  H  H50  1  0.131140  0.945490  0.780820  1
  H  H51  1  0.131140  0.945490  0.219180  1
  H  H52  1  0.868860  0.054510  0.780820  1
  H  H53  1  0.131140  0.054510  0.780820  1
  H  H54  1  0.868860  0.945490  0.219180  1
  H  H55  1  0.131140  0.054510  0.219180  1
  H  H56  1  0.868860  0.945490  0.780820  1
  H  H57  1  0.554510  0.219180  0.368860  1
  H  H58  1  0.445490  0.780820  0.631140  1
  H  H59  1  0.719180  0.368860  0.054510  1
  H  H60  1  0.280820  0.631140  0.945490  1
  H  H61  1  0.554510  0.219180  0.631140  1
  H  H62  1  0.445490  0.780820  0.368860  1
  H  H63  1  0.280820  0.368860  0.054510  1
  H  H64  1  0.719180  0.631140  0.945490  1
  H  H65  1  0.445490  0.219180  0.631140  1
  H  H66  1  0.554510  0.780820  0.368860  1
  H  H67  1  0.280820  0.631140  0.054510  1
  H  H68  1  0.719180  0.368860  0.945490  1
  H  H69  1  0.445490  0.219180  0.368860  1
  H  H70  1  0.554510  0.780820  0.631140  1
  H  H71  1  0.719180  0.631140  0.054510  1
  H  H72  1  0.280820  0.368860  0.945490  1
  C  C73  1  0.686520  0.279830  0.186510  1
  C  C74  1  0.313480  0.720170  0.813490  1
  C  C75  1  0.313480  0.720170  0.186510  1
  C  C76  1  0.686520  0.279830  0.813490  1
  C  C77  1  0.313480  0.279830  0.186510  1
  C  C78  1  0.686520  0.720170  0.813490  1
  C  C79  1  0.313480  0.279830  0.813490  1
  C  C80  1  0.686520  0.720170  0.186510  1
  C  C81  1  0.686510  0.186520  0.279830  1
  C  C82  1  0.313490  0.813480  0.720170  1
  C  C83  1  0.779830  0.186510  0.186520  1
  C  C84  1  0.220170  0.813490  0.813480  1
  C  C85  1  0.313490  0.813480  0.279830  1
  C  C86  1  0.686510  0.186520  0.720170  1
  C  C87  1  0.220170  0.186510  0.813480  1
  C  C88  1  0.779830  0.813490  0.186520  1
  C  C89  1  0.313490  0.186520  0.279830  1
  C  C90  1  0.686510  0.813480  0.720170  1
  C  C91  1  0.220170  0.813490  0.186520  1
  C  C92  1  0.779830  0.186510  0.813480  1
  C  C93  1  0.313490  0.186520  0.720170  1
  C  C94  1  0.686510  0.813480  0.279830  1
  C  C95  1  0.220170  0.186510  0.186520  1
  C  C96  1  0.779830  0.813490  0.813480  1
  C  C97  1  0.748450  0.156530  0.248460  1
  C  C98  1  0.251540  0.843470  0.751540  1
  C  C99  1  0.251550  0.843470  0.248460  1
  C  C100  1  0.748460  0.156530  0.751540  1
  C  C101  1  0.251550  0.156530  0.751540  1
  C  C102  1  0.748460  0.843470  0.248460  1
  C  C103  1  0.251550  0.156530  0.248460  1
  C  C104  1  0.748450  0.843470  0.751540  1
  C  C105  1  0.656530  0.248460  0.248450  1
  C  C106  1  0.343470  0.751540  0.751550  1
  C  C107  1  0.748460  0.248450  0.156530  1
  C  C108  1  0.251540  0.751550  0.843470  1
  C  C109  1  0.343470  0.751540  0.248450  1
  C  C110  1  0.656530  0.248460  0.751550  1
  C  C111  1  0.251540  0.248450  0.156530  1
  C  C112  1  0.748460  0.751550  0.843470  1
  C  C113  1  0.343470  0.248460  0.751550  1
  C  C114  1  0.656530  0.751540  0.248450  1
  C  C115  1  0.251540  0.751550  0.156530  1
  C  C116  1  0.748460  0.248450  0.843470  1
  C  C117  1  0.343470  0.248460  0.248450  1
  C  C118  1  0.656530  0.751540  0.751540  1
  C  C119  1  0.251540  0.248460  0.843470  1
  C  C120  1  0.748460  0.751550  0.156530  1
  C  C121  1  0.652140  0.342010  0.152140  1
  C  C122  1  0.347860  0.657990  0.847870  1
  C  C123  1  0.347860  0.657990  0.152140  1
  C  C124  1  0.652150  0.342010  0.847870  1
  C  C125  1  0.347860  0.342010  0.152130  1
  C  C126  1  0.652140  0.657990  0.847860  1
  C  C127  1  0.652150  0.657990  0.152130  1
  C  C128  1  0.347860  0.342010  0.847860  1
  C  C129  1  0.652140  0.152140  0.342010  1
  C  C130  1  0.347860  0.847860  0.657990  1
  C  C131  1  0.842010  0.152140  0.152140  1
  C  C132  1  0.157990  0.847860  0.847860  1
  C  C133  1  0.652140  0.152140  0.657990  1
  C  C134  1  0.347870  0.847860  0.342010  1
  C  C135  1  0.157990  0.152130  0.847860  1
  C  C136  1  0.842010  0.847860  0.152140  1
  C  C137  1  0.347860  0.152140  0.342010  1
  C  C138  1  0.652130  0.847860  0.657990  1
  C  C139  1  0.157990  0.847860  0.152140  1
  C  C140  1  0.842010  0.152140  0.847850  1
  C  C141  1  0.347870  0.152150  0.657990  1
  C  C142  1  0.652140  0.847860  0.342010  1
  C  C143  1  0.157990  0.152130  0.152150  1
  C  C144  1  0.842010  0.847860  0.847860  1
  C  C145  1  0.588690  0.377810  0.172760  1
  C  C146  1  0.411310  0.622190  0.827240  1
  C  C147  1  0.411310  0.622190  0.172760  1
  C  C148  1  0.588690  0.377810  0.827240  1
  C  C149  1  0.411310  0.377810  0.172760  1
  C  C150  1  0.588690  0.622190  0.827240  1
  C  C151  1  0.588690  0.622190  0.172760  1
  C  C152  1  0.411310  0.377810  0.827240  1
  C  C153  1  0.672760  0.088690  0.377810  1
  C  C154  1  0.327240  0.911310  0.622190  1
  C  C155  1  0.877810  0.172760  0.088690  1
  C  C156  1  0.122190  0.827240  0.911310  1
  C  C157  1  0.672760  0.088690  0.622190  1
  C  C158  1  0.327240  0.911310  0.377810  1
  C  C159  1  0.122190  0.172760  0.911310  1
  C  C160  1  0.877810  0.827240  0.088690  1
  C  C161  1  0.327240  0.088690  0.377810  1
  C  C162  1  0.672760  0.911310  0.622190  1
  C  C163  1  0.122190  0.827240  0.088690  1
  C  C164  1  0.877810  0.172760  0.911310  1
  C  C165  1  0.327240  0.088690  0.622190  1
  C  C166  1  0.672760  0.911310  0.377810  1
  C  C167  1  0.122190  0.172760  0.088690  1
  C  C168  1  0.877810  0.827240  0.911310  1
  C  C169  1  0.877830  0.088700  0.172790  1
  C  C170  1  0.122170  0.911300  0.827210  1
  C  C171  1  0.122170  0.911300  0.172790  1
  C  C172  1  0.877830  0.088710  0.827210  1
  C  C173  1  0.122170  0.088700  0.827210  1
  C  C174  1  0.877830  0.911290  0.172790  1
  C  C175  1  0.122170  0.088710  0.172790  1
  C  C176  1  0.877830  0.911300  0.827210  1
  C  C177  1  0.588710  0.172790  0.377830  1
  C  C178  1  0.411300  0.827210  0.622170  1
  C  C179  1  0.672790  0.377830  0.088700  1
  C  C180  1  0.327210  0.622170  0.911290  1
  C  C181  1  0.588700  0.172790  0.622170  1
  C  C182  1  0.411290  0.827210  0.377830  1
  C  C183  1  0.327210  0.377830  0.088710  1
  C  C184  1  0.672790  0.622170  0.911300  1
  C  C185  1  0.411290  0.172790  0.622170  1
  C  C186  1  0.588700  0.827210  0.377830  1
  C  C187  1  0.327210  0.622170  0.088700  1
  C  C188  1  0.672790  0.377830  0.911290  1
  C  C189  1  0.411290  0.172790  0.377830  1
  C  C190  1  0.588710  0.827210  0.622170  1
  C  C191  1  0.672790  0.622170  0.088710  1
  C  C192  1  0.327210  0.377830  0.911290  1
  N  N193  1  0.573130  0.430150  0.124860  1
  N  N194  1  0.426870  0.569850  0.875140  1
  N  N195  1  0.426870  0.569850  0.124860  1
  N  N196  1  0.573130  0.430150  0.875140  1
  N  N197  1  0.426870  0.430150  0.124860  1
  N  N198  1  0.573130  0.569850  0.875140  1
  N  N199  1  0.573130  0.569850  0.124860  1
  N  N200  1  0.426870  0.430140  0.875140  1
  N  N201  1  0.624860  0.073130  0.430150  1
  N  N202  1  0.375140  0.926870  0.569850  1
  N  N203  1  0.930150  0.124860  0.073130  1
  N  N204  1  0.069850  0.875140  0.926870  1
  N  N205  1  0.624860  0.073130  0.569850  1
  N  N206  1  0.375140  0.926870  0.430150  1
  N  N207  1  0.069850  0.124860  0.926870  1
  N  N208  1  0.930150  0.875140  0.073130  1
  N  N209  1  0.375140  0.073130  0.430150  1
  N  N210  1  0.624860  0.926870  0.569850  1
  N  N211  1  0.069850  0.875140  0.073130  1
  N  N212  1  0.930150  0.124860  0.926870  1
  N  N213  1  0.375140  0.073130  0.569850  1
  N  N214  1  0.624860  0.926870  0.430150  1
  N  N215  1  0.069850  0.124860  0.073130  1
  N  N216  1  0.930150  0.875140  0.926870  1
  N  N217  1  0.930160  0.073130  0.124890  1
  N  N218  1  0.069840  0.926870  0.875110  1
  N  N219  1  0.069840  0.926870  0.124890  1
  N  N220  1  0.930160  0.073130  0.875110  1
  N  N221  1  0.069840  0.073130  0.875110  1
  N  N222  1  0.930160  0.926870  0.124890  1
  N  N223  1  0.069840  0.073130  0.124890  1
  N  N224  1  0.930160  0.926870  0.875110  1
  N  N225  1  0.573130  0.124890  0.430160  1
  N  N226  1  0.426870  0.875110  0.569840  1
  N  N227  1  0.624890  0.430160  0.073130  1
  N  N228  1  0.375110  0.569840  0.926870  1
  N  N229  1  0.573130  0.124890  0.569840  1
  N  N230  1  0.426870  0.875110  0.430160  1
  N  N231  1  0.375110  0.430160  0.073130  1
  N  N232  1  0.624890  0.569840  0.926870  1
  N  N233  1  0.426870  0.124890  0.569840  1
  N  N234  1  0.573130  0.875110  0.430160  1
  N  N235  1  0.375110  0.569840  0.073130  1
  N  N236  1  0.624890  0.430160  0.926870  1
  N  N237  1  0.426870  0.124890  0.430160  1
  N  N238  1  0.573130  0.875110  0.569840  1
  N  N239  1  0.624890  0.569840  0.073130  1
  N  N240  1  0.375110  0.430160  0.926870  1
