# generated using pymatgen
data_Ni
_symmetry_space_group_name_H-M   'P 1'
_cell_length_a   18.54810000
_cell_length_b   18.54810000
_cell_length_c   18.54810000
_cell_angle_alpha   90.00000000
_cell_angle_beta   90.00000000
_cell_angle_gamma   90.00000000
_symmetry_Int_Tables_number   1
_chemical_formula_structural   Ni
_chemical_formula_sum   Ni12
_cell_volume   6381.14019164
_cell_formula_units_Z   12
loop_
 _symmetry_equiv_pos_site_id
 _symmetry_equiv_pos_as_xyz
  1  'x, y, z'
loop_
 _atom_site_type_symbol
 _atom_site_label
 _atom_site_symmetry_multiplicity
 _atom_site_fract_x
 _atom_site_fract_y
 _atom_site_fract_z
 _atom_site_occupancy
  Ni  Ni1  1  0.000000  0.124310  0.000000  1
  Ni  Ni2  1  0.000000  0.875690  0.000000  1
  Ni  Ni3  1  0.500000  0.500000  0.124310  1
  Ni  Ni4  1  0.500000  0.500000  0.875690  1
  Ni  Ni5  1  0.375690  0.000000  0.500000  1
  Ni  Ni6  1  0.624310  0.000000  0.500000  1
  Ni  Ni7  1  0.375650  0.500000  0.000000  1
  Ni  Ni8  1  0.624350  0.500000  0.000000  1
  Ni  Ni9  1  0.000000  0.000000  0.124350  1
  Ni  Ni10  1  0.000000  0.000000  0.875650  1
  Ni  Ni11  1  0.500000  0.124350  0.500000  1
  Ni  Ni12  1  0.500000  0.875650  0.500000  1
