# generated using pymatgen
data_Mn(SO2)2
_symmetry_space_group_name_H-M   'P 1'
_cell_length_a   14.88210000
_cell_length_b   16.60730000
_cell_length_c   16.60730000
_cell_angle_alpha   111.48300000
_cell_angle_beta   107.38200000
_cell_angle_gamma   107.38200000
_symmetry_Int_Tables_number   1
_chemical_formula_structural   Mn(SO2)2
_chemical_formula_sum   'Mn1 S2 O4'
_cell_volume   3237.15795232
_cell_formula_units_Z   1
loop_
 _symmetry_equiv_pos_site_id
 _symmetry_equiv_pos_as_xyz
  1  'x, y, z'
loop_
 _atom_site_type_symbol
 _atom_site_label
 _atom_site_symmetry_multiplicity
 _atom_site_fract_x
 _atom_site_fract_y
 _atom_site_fract_z
 _atom_site_occupancy
  Mn  Mn1  1  0.908840  0.658850  0.317760  1
  S  S2  1  0.831620  0.511700  0.338050  1
  S  S3  1  1.006480  0.826330  0.338050  1
  O  O4  1  0.756020  0.599950  0.203410  1
  O  O5  1  1.060390  0.684570  0.423200  1
  O  O6  1  0.947330  0.603420  0.203470  1
  O  O7  1  0.862870  0.738610  0.423240  1
