# generated using pymatgen
data_Mn(SO2)2
_symmetry_space_group_name_H-M   'P 1'
_cell_length_a   14.88210000
_cell_length_b   16.60730000
_cell_length_c   16.60730000
_cell_angle_alpha   111.48300000
_cell_angle_beta   107.38200000
_cell_angle_gamma   107.38200000
_symmetry_Int_Tables_number   1
_chemical_formula_structural   Mn(SO2)2
_chemical_formula_sum   'Mn1 S2 O4'
_cell_volume   3237.15795232
_cell_formula_units_Z   1
loop_
 _symmetry_equiv_pos_site_id
 _symmetry_equiv_pos_as_xyz
  1  'x, y, z'
loop_
 _atom_site_type_symbol
 _atom_site_label
 _atom_site_symmetry_multiplicity
 _atom_site_fract_x
 _atom_site_fract_y
 _atom_site_fract_z
 _atom_site_occupancy
  Mn  Mn1  1  0.591160  0.682240  0.341150  1
  S  S2  1  0.493520  0.661950  0.173670  1
  S  S3  1  0.668380  0.661960  0.488300  1
  O  O4  1  0.637130  0.576760  0.261400  1
  O  O5  1  0.552670  0.796530  0.396580  1
  O  O6  1  0.439610  0.576800  0.315430  1
  O  O7  1  0.743980  0.796590  0.400050  1
