# generated using pymatgen
data_Mn
_symmetry_space_group_name_H-M   'P 1'
_cell_length_a   14.88210000
_cell_length_b   16.60730000
_cell_length_c   16.60730000
_cell_angle_alpha   111.48300000
_cell_angle_beta   107.38200000
_cell_angle_gamma   107.38200000
_symmetry_Int_Tables_number   1
_chemical_formula_structural   Mn
_chemical_formula_sum   Mn12
_cell_volume   3237.15795232
_cell_formula_units_Z   12
loop_
 _symmetry_equiv_pos_site_id
 _symmetry_equiv_pos_as_xyz
  1  'x, y, z'
loop_
 _atom_site_type_symbol
 _atom_site_label
 _atom_site_symmetry_multiplicity
 _atom_site_fract_x
 _atom_site_fract_y
 _atom_site_fract_z
 _atom_site_occupancy
  Mn  Mn1  1  0.408850  0.317760  0.658860  1
  Mn  Mn2  1  0.750000  0.341110  0.658890  1
  Mn  Mn3  1  0.091160  0.341150  0.682240  1
  Mn  Mn4  1  0.591160  0.682240  0.341150  1
  Mn  Mn5  1  0.250000  0.658890  0.341110  1
  Mn  Mn6  1  0.908840  0.658850  0.317760  1
  Mn  Mn7  1  0.250010  0.394020  0.605980  1
  Mn  Mn8  1  0.644060  0.394070  0.788060  1
  Mn  Mn9  1  0.855940  0.211940  0.605930  1
  Mn  Mn10  1  0.750000  0.605980  0.394020  1
  Mn  Mn11  1  0.355940  0.605930  0.211950  1
  Mn  Mn12  1  0.144060  0.788050  0.394070  1
