# generated using pymatgen
data_HC4SO2
_symmetry_space_group_name_H-M   'P 1'
_cell_length_a   14.88210000
_cell_length_b   16.60730000
_cell_length_c   16.60730000
_cell_angle_alpha   111.48300000
_cell_angle_beta   107.38200000
_cell_angle_gamma   107.38200000
_symmetry_Int_Tables_number   1
_chemical_formula_structural   HC4SO2
_chemical_formula_sum   'H12 C48 S12 O24'
_cell_volume   3237.15795232
_cell_formula_units_Z   12
loop_
 _symmetry_equiv_pos_site_id
 _symmetry_equiv_pos_as_xyz
  1  'x, y, z'
loop_
 _atom_site_type_symbol
 _atom_site_label
 _atom_site_symmetry_multiplicity
 _atom_site_fract_x
 _atom_site_fract_y
 _atom_site_fract_z
 _atom_site_occupancy
  H  H1  1  0.354400  0.545460  0.969500  1
  H  H2  1  0.384910  0.030520  0.576000  1
  H  H3  1  0.808890  0.424100  0.454580  1
  H  H4  1  0.115080  0.424000  0.969480  1
  H  H5  1  0.691110  0.545430  0.575900  1
  H  H6  1  0.145600  0.030490  0.454550  1
  H  H7  1  0.645600  0.454540  0.030500  1
  H  H8  1  0.615090  0.969480  0.424000  1
  H  H9  1  0.191110  0.575900  0.545420  1
  H  H10  1  0.884920  0.576000  0.030520  1
  H  H11  1  0.308890  0.454570  0.424100  1
  H  H12  1  0.854400  0.969510  0.545460  1
  C  C13  1  0.422720  0.460030  0.904730  1
  C  C14  1  0.337010  0.424040  0.807180  1
  C  C15  1  0.418480  0.525440  0.984070  1
  C  C16  1  0.505100  0.432860  0.919830  1
  C  C17  1  0.517930  0.095290  0.555270  1
  C  C18  1  0.529760  0.192870  0.616840  1
  C  C19  1  0.434390  0.015950  0.541370  1
  C  C20  1  0.585170  0.080130  0.512960  1
  C  C21  1  0.962680  0.444780  0.540030  1
  C  C22  1  0.912940  0.383210  0.576010  1
  C  C23  1  0.893000  0.458620  0.474550  1
  C  C24  1  0.072230  0.487030  0.567170  1
  C  C25  1  0.982060  0.444720  0.904700  1
  C  C26  1  0.970230  0.383160  0.807130  1
  C  C27  1  0.065600  0.458630  0.984040  1
  C  C28  1  0.914830  0.487040  0.919870  1
  C  C29  1  0.537310  0.459960  0.555220  1
  C  C30  1  0.587050  0.423990  0.616790  1
  C  C31  1  0.607000  0.525450  0.541390  1
  C  C32  1  0.427760  0.432830  0.512960  1
  C  C33  1  0.077290  0.095270  0.539980  1
  C  C34  1  0.162990  0.192820  0.575970  1
  C  C35  1  0.081520  0.015930  0.474560  1
  C  C36  1  0.994900  0.080170  0.567140  1
  C  C37  1  0.577280  0.539980  0.095280  1
  C  C38  1  0.662990  0.575960  0.192820  1
  C  C39  1  0.581520  0.474560  0.015940  1
  C  C40  1  0.494900  0.567140  0.080170  1
  C  C41  1  0.482070  0.904710  0.444730  1
  C  C42  1  0.470240  0.807130  0.383170  1
  C  C43  1  0.565610  0.984050  0.458630  1
  C  C44  1  0.414830  0.919870  0.487040  1
  C  C45  1  0.037310  0.555220  0.459960  1
  C  C46  1  0.087060  0.616790  0.423990  1
  C  C47  1  0.107000  0.541380  0.525440  1
  C  C48  1  0.927760  0.512970  0.432830  1
  C  C49  1  0.017930  0.555270  0.095290  1
  C  C50  1  0.029770  0.616840  0.192860  1
  C  C51  1  0.934400  0.541370  0.015950  1
  C  C52  1  0.085170  0.512960  0.080130  1
  C  C53  1  0.462690  0.540040  0.444780  1
  C  C54  1  0.412950  0.576010  0.383210  1
  C  C55  1  0.393000  0.474550  0.458620  1
  C  C56  1  0.572240  0.567170  0.487040  1
  C  C57  1  0.922710  0.904730  0.460020  1
  C  C58  1  0.837010  0.807190  0.424040  1
  C  C59  1  0.918480  0.984070  0.525440  1
  C  C60  1  0.005100  0.919830  0.432860  1
  S  S61  1  0.506480  0.338050  0.826340  1
  S  S62  1  0.680060  0.173640  0.511690  1
  S  S63  1  0.168380  0.488300  0.661950  1
  S  S64  1  0.819940  0.488310  0.826360  1
  S  S65  1  0.331620  0.338050  0.511700  1
  S  S66  1  0.993530  0.173670  0.661950  1
  S  S67  1  0.493520  0.661950  0.173670  1
  S  S68  1  0.319940  0.826360  0.488310  1
  S  S69  1  0.831620  0.511700  0.338050  1
  S  S70  1  0.180060  0.511690  0.173640  1
  S  S71  1  0.668380  0.661960  0.488300  1
  S  S72  1  0.006480  0.826330  0.338050  1
  O  O73  1  0.362880  0.423240  0.738610  1
  O  O74  1  0.243980  0.400050  0.796590  1
  O  O75  1  0.624220  0.261420  0.684650  1
  O  O76  1  0.447330  0.203470  0.603420  1
  O  O77  1  0.939610  0.315430  0.576800  1
  O  O78  1  0.843910  0.396590  0.600020  1
  O  O79  1  0.875780  0.315350  0.738580  1
  O  O80  1  0.052660  0.396570  0.796530  1
  O  O81  1  0.560390  0.423200  0.684570  1
  O  O82  1  0.656080  0.399970  0.603410  1
  O  O83  1  0.137130  0.261390  0.576760  1
  O  O84  1  0.256020  0.203410  0.599950  1
  O  O85  1  0.637130  0.576760  0.261400  1
  O  O86  1  0.756020  0.599950  0.203410  1
  O  O87  1  0.375790  0.738580  0.315350  1
  O  O88  1  0.552670  0.796530  0.396580  1
  O  O89  1  0.060390  0.684570  0.423200  1
  O  O90  1  0.156080  0.603410  0.399980  1
  O  O91  1  0.124220  0.684650  0.261420  1
  O  O92  1  0.947330  0.603420  0.203470  1
  O  O93  1  0.439610  0.576800  0.315430  1
  O  O94  1  0.343920  0.600030  0.396590  1
  O  O95  1  0.862870  0.738610  0.423240  1
  O  O96  1  0.743980  0.796590  0.400050  1
